* NGSPICE file created from dff_ram_4x72.ext - technology: sky130A

* Black-box entry subcircuit for sky130_fd_sc_hd__dfxtp_1 abstract view
.subckt sky130_fd_sc_hd__dfxtp_1 CLK D VGND VNB VPB VPWR Q
.ends

* Black-box entry subcircuit for sky130_fd_sc_hd__decap_6 abstract view
.subckt sky130_fd_sc_hd__decap_6 VGND VNB VPB VPWR
.ends

* Black-box entry subcircuit for sky130_fd_sc_hd__dlygate4sd3_1 abstract view
.subckt sky130_fd_sc_hd__dlygate4sd3_1 A VGND VNB VPB VPWR X
.ends

* Black-box entry subcircuit for sky130_fd_sc_hd__decap_3 abstract view
.subckt sky130_fd_sc_hd__decap_3 VGND VNB VPB VPWR
.ends

* Black-box entry subcircuit for sky130_fd_sc_hd__decap_8 abstract view
.subckt sky130_fd_sc_hd__decap_8 VGND VNB VPB VPWR
.ends

* Black-box entry subcircuit for sky130_ef_sc_hd__decap_12 abstract view
.subckt sky130_ef_sc_hd__decap_12 VPWR VGND VPB VNB
.ends

* Black-box entry subcircuit for sky130_fd_sc_hd__tapvpwrvgnd_1 abstract view
.subckt sky130_fd_sc_hd__tapvpwrvgnd_1 VGND VPWR
.ends

* Black-box entry subcircuit for sky130_fd_sc_hd__decap_4 abstract view
.subckt sky130_fd_sc_hd__decap_4 VGND VNB VPB VPWR
.ends

* Black-box entry subcircuit for sky130_fd_sc_hd__mux2_1 abstract view
.subckt sky130_fd_sc_hd__mux2_1 A0 A1 S VGND VNB VPB VPWR X
.ends

* Black-box entry subcircuit for sky130_fd_sc_hd__buf_4 abstract view
.subckt sky130_fd_sc_hd__buf_4 A VGND VNB VPB VPWR X
.ends

* Black-box entry subcircuit for sky130_fd_sc_hd__clkbuf_1 abstract view
.subckt sky130_fd_sc_hd__clkbuf_1 A VGND VNB VPB VPWR X
.ends

* Black-box entry subcircuit for sky130_fd_sc_hd__fill_1 abstract view
.subckt sky130_fd_sc_hd__fill_1 VGND VNB VPB VPWR
.ends

* Black-box entry subcircuit for sky130_fd_sc_hd__fill_2 abstract view
.subckt sky130_fd_sc_hd__fill_2 VGND VNB VPB VPWR
.ends

* Black-box entry subcircuit for sky130_fd_sc_hd__mux4_1 abstract view
.subckt sky130_fd_sc_hd__mux4_1 A0 A1 A2 A3 S0 S1 VGND VNB VPB VPWR X
.ends

* Black-box entry subcircuit for sky130_fd_sc_hd__clkbuf_4 abstract view
.subckt sky130_fd_sc_hd__clkbuf_4 A VGND VNB VPB VPWR X
.ends

* Black-box entry subcircuit for sky130_fd_sc_hd__buf_2 abstract view
.subckt sky130_fd_sc_hd__buf_2 A VGND VNB VPB VPWR X
.ends

* Black-box entry subcircuit for sky130_fd_sc_hd__nor3_2 abstract view
.subckt sky130_fd_sc_hd__nor3_2 A B C VGND VNB VPB VPWR Y
.ends

* Black-box entry subcircuit for sky130_fd_sc_hd__clkbuf_8 abstract view
.subckt sky130_fd_sc_hd__clkbuf_8 A VGND VNB VPB VPWR X
.ends

* Black-box entry subcircuit for sky130_fd_sc_hd__clkbuf_16 abstract view
.subckt sky130_fd_sc_hd__clkbuf_16 A VGND VNB VPB VPWR X
.ends

* Black-box entry subcircuit for sky130_fd_sc_hd__nor3b_2 abstract view
.subckt sky130_fd_sc_hd__nor3b_2 A B C_N VGND VNB VPB VPWR Y
.ends

* Black-box entry subcircuit for sky130_fd_sc_hd__clkbuf_2 abstract view
.subckt sky130_fd_sc_hd__clkbuf_2 A VGND VNB VPB VPWR X
.ends

* Black-box entry subcircuit for sky130_fd_sc_hd__buf_1 abstract view
.subckt sky130_fd_sc_hd__buf_1 A VGND VNB VPB VPWR X
.ends

* Black-box entry subcircuit for sky130_fd_sc_hd__nor2b_2 abstract view
.subckt sky130_fd_sc_hd__nor2b_2 A B_N VGND VNB VPB VPWR Y
.ends

* Black-box entry subcircuit for sky130_fd_sc_hd__and3b_1 abstract view
.subckt sky130_fd_sc_hd__and3b_1 A_N B C VGND VNB VPB VPWR X
.ends

.subckt dff_ram_4x72 VGND VPWR address[0] address[1] clk en_n rdata[0] rdata[10] rdata[11]
+ rdata[12] rdata[13] rdata[14] rdata[15] rdata[16] rdata[17] rdata[18] rdata[19]
+ rdata[1] rdata[20] rdata[21] rdata[22] rdata[23] rdata[24] rdata[25] rdata[26] rdata[27]
+ rdata[28] rdata[29] rdata[2] rdata[30] rdata[31] rdata[32] rdata[33] rdata[34] rdata[35]
+ rdata[36] rdata[37] rdata[38] rdata[39] rdata[3] rdata[40] rdata[41] rdata[42] rdata[43]
+ rdata[44] rdata[45] rdata[46] rdata[47] rdata[48] rdata[49] rdata[4] rdata[50] rdata[51]
+ rdata[52] rdata[53] rdata[54] rdata[55] rdata[56] rdata[57] rdata[58] rdata[59]
+ rdata[5] rdata[60] rdata[61] rdata[62] rdata[63] rdata[64] rdata[65] rdata[66] rdata[67]
+ rdata[68] rdata[69] rdata[6] rdata[70] rdata[71] rdata[7] rdata[8] rdata[9] wdata[0]
+ wdata[10] wdata[11] wdata[12] wdata[13] wdata[14] wdata[15] wdata[16] wdata[17]
+ wdata[18] wdata[19] wdata[1] wdata[20] wdata[21] wdata[22] wdata[23] wdata[24] wdata[25]
+ wdata[26] wdata[27] wdata[28] wdata[29] wdata[2] wdata[30] wdata[31] wdata[32] wdata[33]
+ wdata[34] wdata[35] wdata[36] wdata[37] wdata[38] wdata[39] wdata[3] wdata[40] wdata[41]
+ wdata[42] wdata[43] wdata[44] wdata[45] wdata[46] wdata[47] wdata[48] wdata[49]
+ wdata[4] wdata[50] wdata[51] wdata[52] wdata[53] wdata[54] wdata[55] wdata[56] wdata[57]
+ wdata[58] wdata[59] wdata[5] wdata[60] wdata[61] wdata[62] wdata[63] wdata[64] wdata[65]
+ wdata[66] wdata[67] wdata[68] wdata[69] wdata[6] wdata[70] wdata[71] wdata[7] wdata[8]
+ wdata[9] wr
X_2037_ clknet_leaf_13_clk _0177_ VGND VGND VPWR VPWR net103 sky130_fd_sc_hd__dfxtp_1
X_2106_ clknet_leaf_10_clk _0246_ VGND VGND VPWR VPWR data\[3\]\[30\] sky130_fd_sc_hd__dfxtp_1
XFILLER_0_17_233 VGND VGND VPWR VPWR sky130_fd_sc_hd__decap_6
Xhold340 net109 VGND VGND VPWR VPWR net491 sky130_fd_sc_hd__dlygate4sd3_1
Xhold351 net124 VGND VGND VPWR VPWR net502 sky130_fd_sc_hd__dlygate4sd3_1
XFILLER_0_4_193 VGND VGND VPWR VPWR sky130_fd_sc_hd__decap_3
XFILLER_0_17_266 VGND VGND VPWR VPWR sky130_fd_sc_hd__decap_8
XFILLER_0_17_277 VGND VGND VPWR VPWR sky130_fd_sc_hd__decap_3
XFILLER_0_23_18 VPWR VGND VPWR VGND sky130_ef_sc_hd__decap_12
XFILLER_0_63_361 VPWR VGND VPWR VGND sky130_ef_sc_hd__decap_12
XTAP_TAPCELL_ROW_51_470 VGND VPWR sky130_fd_sc_hd__tapvpwrvgnd_1
XFILLER_0_23_225 VGND VGND VPWR VPWR sky130_fd_sc_hd__decap_4
XFILLER_0_48_15 VGND VGND VPWR VPWR sky130_fd_sc_hd__decap_6
XFILLER_0_23_258 VGND VGND VPWR VPWR sky130_fd_sc_hd__decap_4
XFILLER_0_64_69 VGND VGND VPWR VPWR sky130_fd_sc_hd__decap_3
XTAP_TAPCELL_ROW_8_192 VGND VPWR sky130_fd_sc_hd__tapvpwrvgnd_1
X_1270_ net442 _0808_ _0452_ VGND VGND VPWR VPWR _0461_ sky130_fd_sc_hd__mux2_1
X_1606_ net416 _0859_ _0634_ VGND VGND VPWR VPWR _0638_ sky130_fd_sc_hd__mux2_1
X_0985_ _0779_ VGND VGND VPWR VPWR _0816_ sky130_fd_sc_hd__buf_4
XTAP_TAPCELL_ROW_57_507 VGND VPWR sky130_fd_sc_hd__tapvpwrvgnd_1
X_1468_ net497 _0881_ _0564_ VGND VGND VPWR VPWR _0565_ sky130_fd_sc_hd__mux2_1
X_1399_ _0528_ VGND VGND VPWR VPWR _0141_ sky130_fd_sc_hd__clkbuf_1
X_1537_ net458 _0424_ _0597_ VGND VGND VPWR VPWR _0601_ sky130_fd_sc_hd__mux2_1
XFILLER_0_49_111 VGND VGND VPWR VPWR sky130_fd_sc_hd__fill_1
XFILLER_0_64_169 VGND VGND VPWR VPWR sky130_fd_sc_hd__fill_2
Xhold181 data\[1\]\[39\] VGND VGND VPWR VPWR net332 sky130_fd_sc_hd__dlygate4sd3_1
Xhold170 data\[2\]\[22\] VGND VGND VPWR VPWR net321 sky130_fd_sc_hd__dlygate4sd3_1
Xhold192 data\[0\]\[38\] VGND VGND VPWR VPWR net343 sky130_fd_sc_hd__dlygate4sd3_1
XTAP_TAPCELL_ROW_5_173 VGND VPWR sky130_fd_sc_hd__tapvpwrvgnd_1
XFILLER_0_18_29 VGND VGND VPWR VPWR sky130_fd_sc_hd__decap_6
XFILLER_0_55_125 VPWR VGND VPWR VGND sky130_ef_sc_hd__decap_12
XFILLER_0_50_27 VGND VGND VPWR VPWR sky130_fd_sc_hd__fill_1
XFILLER_0_59_47 VGND VGND VPWR VPWR sky130_fd_sc_hd__decap_8
XFILLER_0_51_353 VGND VGND VPWR VPWR sky130_fd_sc_hd__fill_2
X_1322_ _0488_ VGND VGND VPWR VPWR _0104_ sky130_fd_sc_hd__clkbuf_1
X_1253_ net151 VGND VGND VPWR VPWR _0452_ sky130_fd_sc_hd__buf_4
X_1184_ net1 VGND VGND VPWR VPWR _0399_ sky130_fd_sc_hd__buf_4
XTAP_TAPCELL_ROW_19_264 VGND VPWR sky130_fd_sc_hd__tapvpwrvgnd_1
XTAP_TAPCELL_ROW_62_543 VGND VPWR sky130_fd_sc_hd__tapvpwrvgnd_1
X_0968_ data\[0\]\[7\] data\[1\]\[7\] data\[2\]\[7\] data\[3\]\[7\] _0798_ _0772_
+ VGND VGND VPWR VPWR _0802_ sky130_fd_sc_hd__mux4_1
XFILLER_0_24_94 VGND VGND VPWR VPWR sky130_fd_sc_hd__fill_2
XTAP_TAPCELL_ROW_2_154 VGND VPWR sky130_fd_sc_hd__tapvpwrvgnd_1
XFILLER_0_33_331 VGND VGND VPWR VPWR sky130_fd_sc_hd__fill_2
XFILLER_0_25_309 VGND VGND VPWR VPWR sky130_fd_sc_hd__fill_1
XFILLER_0_61_15 VPWR VGND VPWR VGND sky130_ef_sc_hd__decap_12
XFILLER_0_45_49 VGND VGND VPWR VPWR sky130_fd_sc_hd__decap_6
XFILLER_0_0_29 VPWR VGND VPWR VGND sky130_ef_sc_hd__decap_12
XFILLER_0_28_136 VGND VGND VPWR VPWR sky130_fd_sc_hd__fill_1
XFILLER_0_24_320 VGND VGND VPWR VPWR sky130_fd_sc_hd__fill_1
X_1871_ clknet_leaf_21_clk _0011_ VGND VGND VPWR VPWR data\[2\]\[11\] sky130_fd_sc_hd__dfxtp_1
X_1940_ clknet_leaf_23_clk _0080_ VGND VGND VPWR VPWR data\[0\]\[8\] sky130_fd_sc_hd__dfxtp_1
XFILLER_0_16_309 VPWR VGND VPWR VGND sky130_ef_sc_hd__decap_12
XTAP_TAPCELL_ROW_16_245 VGND VPWR sky130_fd_sc_hd__tapvpwrvgnd_1
XFILLER_0_24_342 VGND VGND VPWR VPWR sky130_fd_sc_hd__fill_1
XFILLER_0_3_225 VGND VGND VPWR VPWR sky130_fd_sc_hd__fill_1
X_1305_ _0479_ VGND VGND VPWR VPWR _0096_ sky130_fd_sc_hd__clkbuf_1
X_1236_ data\[0\]\[68\] data\[1\]\[68\] data\[2\]\[68\] data\[3\]\[68\] _0797_ _0805_
+ VGND VGND VPWR VPWR _0439_ sky130_fd_sc_hd__mux4_1
X_1098_ net33 _0902_ _0882_ VGND VGND VPWR VPWR _0903_ sky130_fd_sc_hd__mux2_1
X_1167_ _0386_ VGND VGND VPWR VPWR _0051_ sky130_fd_sc_hd__clkbuf_1
XFILLER_0_2_291 VPWR VGND VPWR VGND sky130_ef_sc_hd__decap_12
XFILLER_0_25_139 VGND VGND VPWR VPWR sky130_fd_sc_hd__fill_2
XFILLER_0_25_106 VGND VGND VPWR VPWR sky130_fd_sc_hd__decap_6
XTAP_TAPCELL_ROW_13_226 VGND VPWR sky130_fd_sc_hd__tapvpwrvgnd_1
XFILLER_0_40_109 VGND VGND VPWR VPWR sky130_fd_sc_hd__fill_2
XFILLER_0_56_15 VPWR VGND VPWR VGND sky130_ef_sc_hd__decap_12
X_2070_ clknet_leaf_28_clk _0210_ VGND VGND VPWR VPWR net139 sky130_fd_sc_hd__dfxtp_1
X_1021_ _0843_ VGND VGND VPWR VPWR _0018_ sky130_fd_sc_hd__clkbuf_1
XFILLER_0_56_253 VGND VGND VPWR VPWR sky130_fd_sc_hd__decap_8
X_1785_ net233 _0903_ _0725_ VGND VGND VPWR VPWR _0732_ sky130_fd_sc_hd__mux2_1
XFILLER_0_31_109 VGND VGND VPWR VPWR sky130_fd_sc_hd__decap_3
X_1854_ net350 _0443_ _0758_ VGND VGND VPWR VPWR _0768_ sky130_fd_sc_hd__mux2_1
X_1923_ clknet_leaf_30_clk _0063_ VGND VGND VPWR VPWR data\[2\]\[63\] sky130_fd_sc_hd__dfxtp_1
XFILLER_0_16_139 VGND VGND VPWR VPWR sky130_fd_sc_hd__fill_1
XFILLER_0_21_73 VGND VGND VPWR VPWR sky130_fd_sc_hd__fill_2
XFILLER_0_12_334 VGND VGND VPWR VPWR sky130_fd_sc_hd__decap_6
X_2199_ clknet_leaf_2_clk _0339_ VGND VGND VPWR VPWR data\[1\]\[51\] sky130_fd_sc_hd__dfxtp_1
X_1219_ _0426_ VGND VGND VPWR VPWR _0063_ sky130_fd_sc_hd__clkbuf_1
XFILLER_0_47_231 VGND VGND VPWR VPWR sky130_fd_sc_hd__fill_1
XFILLER_0_47_220 VGND VGND VPWR VPWR sky130_fd_sc_hd__decap_4
XTAP_TAPCELL_ROW_10_207 VGND VPWR sky130_fd_sc_hd__tapvpwrvgnd_1
XFILLER_0_15_172 VGND VGND VPWR VPWR sky130_fd_sc_hd__decap_6
Xhold63 data\[1\]\[42\] VGND VGND VPWR VPWR net214 sky130_fd_sc_hd__dlygate4sd3_1
Xhold41 data\[1\]\[52\] VGND VGND VPWR VPWR net192 sky130_fd_sc_hd__dlygate4sd3_1
XFILLER_0_30_197 VGND VGND VPWR VPWR sky130_fd_sc_hd__decap_3
XFILLER_0_26_29 VGND VGND VPWR VPWR sky130_fd_sc_hd__fill_2
Xhold74 data\[3\]\[62\] VGND VGND VPWR VPWR net225 sky130_fd_sc_hd__dlygate4sd3_1
Xhold52 data\[0\]\[11\] VGND VGND VPWR VPWR net203 sky130_fd_sc_hd__dlygate4sd3_1
Xhold30 data\[1\]\[2\] VGND VGND VPWR VPWR net181 sky130_fd_sc_hd__dlygate4sd3_1
Xhold85 data\[0\]\[28\] VGND VGND VPWR VPWR net236 sky130_fd_sc_hd__dlygate4sd3_1
Xhold96 data\[2\]\[65\] VGND VGND VPWR VPWR net247 sky130_fd_sc_hd__dlygate4sd3_1
X_1570_ net295 _0800_ _0612_ VGND VGND VPWR VPWR _0619_ sky130_fd_sc_hd__mux2_1
XFILLER_0_21_164 VGND VGND VPWR VPWR sky130_fd_sc_hd__decap_4
X_2122_ clknet_leaf_5_clk _0262_ VGND VGND VPWR VPWR data\[3\]\[46\] sky130_fd_sc_hd__dfxtp_1
X_2053_ clknet_leaf_9_clk _0193_ VGND VGND VPWR VPWR net120 sky130_fd_sc_hd__dfxtp_1
XFILLER_0_20_9 VGND VGND VPWR VPWR sky130_fd_sc_hd__decap_8
X_1004_ data\[0\]\[15\] data\[1\]\[15\] data\[2\]\[15\] data\[3\]\[15\] _0798_ _0806_
+ VGND VGND VPWR VPWR _0830_ sky130_fd_sc_hd__mux4_1
X_1906_ clknet_leaf_5_clk _0046_ VGND VGND VPWR VPWR data\[2\]\[46\] sky130_fd_sc_hd__dfxtp_1
X_1768_ net229 _0876_ _0714_ VGND VGND VPWR VPWR _0723_ sky130_fd_sc_hd__mux2_1
X_1837_ _0759_ VGND VGND VPWR VPWR _0348_ sky130_fd_sc_hd__clkbuf_1
XFILLER_0_12_197 VGND VGND VPWR VPWR sky130_fd_sc_hd__decap_4
X_1699_ _0686_ VGND VGND VPWR VPWR _0283_ sky130_fd_sc_hd__clkbuf_1
Xoutput97 net97 VGND VGND VPWR VPWR rdata[28] sky130_fd_sc_hd__clkbuf_4
Xoutput86 net86 VGND VGND VPWR VPWR rdata[18] sky130_fd_sc_hd__buf_2
XTAP_TAPCELL_ROW_54_490 VGND VPWR sky130_fd_sc_hd__tapvpwrvgnd_1
XTAP_TAPCELL_ROW_46_435 VGND VPWR sky130_fd_sc_hd__tapvpwrvgnd_1
X_1622_ _0646_ VGND VGND VPWR VPWR _0246_ sky130_fd_sc_hd__clkbuf_1
X_1484_ net506 _0909_ _0564_ VGND VGND VPWR VPWR _0573_ sky130_fd_sc_hd__mux2_1
X_1553_ net489 _0448_ _0778_ VGND VGND VPWR VPWR _0609_ sky130_fd_sc_hd__mux2_1
X_2105_ clknet_leaf_13_clk _0245_ VGND VGND VPWR VPWR data\[3\]\[29\] sky130_fd_sc_hd__dfxtp_1
XFILLER_0_49_337 VGND VGND VPWR VPWR sky130_fd_sc_hd__fill_1
X_2036_ clknet_leaf_11_clk _0176_ VGND VGND VPWR VPWR net102 sky130_fd_sc_hd__dfxtp_1
XFILLER_0_27_72 VGND VGND VPWR VPWR sky130_fd_sc_hd__fill_1
XFILLER_0_64_307 VGND VGND VPWR VPWR sky130_fd_sc_hd__fill_1
XFILLER_0_32_226 VGND VGND VPWR VPWR sky130_fd_sc_hd__decap_4
Xhold352 net87 VGND VGND VPWR VPWR net503 sky130_fd_sc_hd__dlygate4sd3_1
Xhold330 net140 VGND VGND VPWR VPWR net481 sky130_fd_sc_hd__dlygate4sd3_1
Xhold341 net85 VGND VGND VPWR VPWR net492 sky130_fd_sc_hd__dlygate4sd3_1
XTAP_TAPCELL_ROW_43_416 VGND VPWR sky130_fd_sc_hd__tapvpwrvgnd_1
XFILLER_0_63_373 VGND VGND VPWR VPWR sky130_fd_sc_hd__decap_8
XTAP_TAPCELL_ROW_51_471 VGND VPWR sky130_fd_sc_hd__tapvpwrvgnd_1
XFILLER_0_31_292 VGND VGND VPWR VPWR sky130_fd_sc_hd__decap_8
XTAP_TAPCELL_ROW_8_193 VGND VPWR sky130_fd_sc_hd__tapvpwrvgnd_1
XFILLER_0_64_15 VPWR VGND VPWR VGND sky130_ef_sc_hd__decap_12
XFILLER_0_46_307 VGND VGND VPWR VPWR sky130_fd_sc_hd__fill_1
X_0984_ net5 _0813_ _0814_ VGND VGND VPWR VPWR _0815_ sky130_fd_sc_hd__mux2_1
X_1605_ _0637_ VGND VGND VPWR VPWR _0238_ sky130_fd_sc_hd__clkbuf_1
X_1536_ _0600_ VGND VGND VPWR VPWR _0206_ sky130_fd_sc_hd__clkbuf_1
XFILLER_0_14_226 VGND VGND VPWR VPWR sky130_fd_sc_hd__decap_4
XTAP_TAPCELL_ROW_57_508 VGND VPWR sky130_fd_sc_hd__tapvpwrvgnd_1
X_1467_ _0778_ VGND VGND VPWR VPWR _0564_ sky130_fd_sc_hd__buf_4
XFILLER_0_38_71 VGND VGND VPWR VPWR sky130_fd_sc_hd__fill_1
X_1398_ net373 _0443_ _0518_ VGND VGND VPWR VPWR _0528_ sky130_fd_sc_hd__mux2_1
XFILLER_0_64_104 VGND VGND VPWR VPWR sky130_fd_sc_hd__fill_2
X_2019_ clknet_leaf_20_clk _0159_ VGND VGND VPWR VPWR net83 sky130_fd_sc_hd__dfxtp_1
XPHY_EDGE_ROW_19_Left_84 VGND VGND VPWR VPWR sky130_fd_sc_hd__decap_3
XFILLER_0_60_365 VPWR VGND VPWR VGND sky130_ef_sc_hd__decap_12
XFILLER_0_60_321 VPWR VGND VPWR VGND sky130_ef_sc_hd__decap_12
Xhold160 data\[2\]\[37\] VGND VGND VPWR VPWR net311 sky130_fd_sc_hd__dlygate4sd3_1
Xhold193 data\[1\]\[46\] VGND VGND VPWR VPWR net344 sky130_fd_sc_hd__dlygate4sd3_1
Xhold171 data\[1\]\[49\] VGND VGND VPWR VPWR net322 sky130_fd_sc_hd__dlygate4sd3_1
Xhold182 data\[2\]\[54\] VGND VGND VPWR VPWR net333 sky130_fd_sc_hd__dlygate4sd3_1
XFILLER_0_34_29 VGND VGND VPWR VPWR sky130_fd_sc_hd__fill_1
XTAP_TAPCELL_ROW_5_174 VGND VPWR sky130_fd_sc_hd__tapvpwrvgnd_1
XFILLER_0_55_137 VGND VGND VPWR VPWR sky130_fd_sc_hd__decap_4
XFILLER_0_59_15 VGND VGND VPWR VPWR sky130_fd_sc_hd__decap_6
XFILLER_0_11_207 VPWR VGND VPWR VGND sky130_ef_sc_hd__decap_12
X_1321_ net193 _0890_ _0485_ VGND VGND VPWR VPWR _0488_ sky130_fd_sc_hd__mux2_1
X_1252_ _0771_ _0805_ _0777_ VGND VGND VPWR VPWR _0451_ sky130_fd_sc_hd__nor3_2
XTAP_TAPCELL_ROW_62_544 VGND VPWR sky130_fd_sc_hd__tapvpwrvgnd_1
X_1183_ _0398_ VGND VGND VPWR VPWR _0055_ sky130_fd_sc_hd__clkbuf_1
XTAP_TAPCELL_ROW_19_265 VGND VPWR sky130_fd_sc_hd__tapvpwrvgnd_1
XFILLER_0_42_365 VGND VGND VPWR VPWR sky130_fd_sc_hd__fill_2
XFILLER_0_42_321 VGND VGND VPWR VPWR sky130_fd_sc_hd__decap_6
XFILLER_0_27_373 VGND VGND VPWR VPWR sky130_fd_sc_hd__fill_1
X_0967_ _0801_ VGND VGND VPWR VPWR _0006_ sky130_fd_sc_hd__clkbuf_1
XFILLER_0_6_234 VGND VGND VPWR VPWR sky130_fd_sc_hd__fill_2
XFILLER_0_6_256 VGND VGND VPWR VPWR sky130_fd_sc_hd__fill_1
XFILLER_0_64_3 VPWR VGND VPWR VGND sky130_ef_sc_hd__decap_12
X_1519_ _0591_ VGND VGND VPWR VPWR _0198_ sky130_fd_sc_hd__clkbuf_1
XPHY_EDGE_ROW_12_Right_12 VGND VGND VPWR VPWR sky130_fd_sc_hd__decap_3
XTAP_TAPCELL_ROW_2_155 VGND VPWR sky130_fd_sc_hd__tapvpwrvgnd_1
XPHY_EDGE_ROW_21_Right_21 VGND VGND VPWR VPWR sky130_fd_sc_hd__decap_3
XPHY_EDGE_ROW_4_Left_69 VGND VGND VPWR VPWR sky130_fd_sc_hd__decap_3
XPHY_EDGE_ROW_30_Right_30 VGND VGND VPWR VPWR sky130_fd_sc_hd__decap_3
XFILLER_0_61_27 VGND VGND VPWR VPWR sky130_fd_sc_hd__decap_8
XTAP_TAPCELL_ROW_16_246 VGND VPWR sky130_fd_sc_hd__tapvpwrvgnd_1
XFILLER_0_3_204 VGND VGND VPWR VPWR sky130_fd_sc_hd__fill_1
X_1870_ clknet_leaf_24_clk _0010_ VGND VGND VPWR VPWR data\[2\]\[10\] sky130_fd_sc_hd__dfxtp_1
XFILLER_0_51_173 VGND VGND VPWR VPWR sky130_fd_sc_hd__fill_1
XFILLER_0_51_162 VGND VGND VPWR VPWR sky130_fd_sc_hd__fill_1
XFILLER_0_50_9 VPWR VGND VPWR VGND sky130_ef_sc_hd__decap_12
XFILLER_0_24_365 VGND VGND VPWR VPWR sky130_fd_sc_hd__fill_1
X_1304_ net450 _0862_ _0474_ VGND VGND VPWR VPWR _0479_ sky130_fd_sc_hd__mux2_1
X_1166_ net309 _0385_ _0382_ VGND VGND VPWR VPWR _0386_ sky130_fd_sc_hd__mux2_1
X_1235_ _0438_ VGND VGND VPWR VPWR _0067_ sky130_fd_sc_hd__clkbuf_1
X_1097_ data\[0\]\[36\] data\[1\]\[36\] data\[2\]\[36\] data\[3\]\[36\] _0901_ _0874_
+ VGND VGND VPWR VPWR _0902_ sky130_fd_sc_hd__mux4_1
XFILLER_0_42_151 VGND VGND VPWR VPWR sky130_fd_sc_hd__decap_4
XFILLER_0_15_332 VGND VGND VPWR VPWR sky130_fd_sc_hd__decap_4
X_1999_ clknet_leaf_1_clk _0139_ VGND VGND VPWR VPWR data\[0\]\[67\] sky130_fd_sc_hd__dfxtp_1
XFILLER_0_21_379 VGND VGND VPWR VPWR sky130_fd_sc_hd__fill_1
XFILLER_0_56_49 VGND VGND VPWR VPWR sky130_fd_sc_hd__fill_2
XFILLER_0_56_27 VGND VGND VPWR VPWR sky130_fd_sc_hd__fill_1
X_1020_ net209 _0842_ _0816_ VGND VGND VPWR VPWR _0843_ sky130_fd_sc_hd__mux2_1
XFILLER_0_56_210 VGND VGND VPWR VPWR sky130_fd_sc_hd__decap_3
X_1922_ clknet_leaf_27_clk _0062_ VGND VGND VPWR VPWR data\[2\]\[62\] sky130_fd_sc_hd__dfxtp_1
X_1784_ _0731_ VGND VGND VPWR VPWR _0323_ sky130_fd_sc_hd__clkbuf_1
XFILLER_0_16_129 VGND VGND VPWR VPWR sky130_fd_sc_hd__fill_1
X_1853_ _0767_ VGND VGND VPWR VPWR _0356_ sky130_fd_sc_hd__clkbuf_1
XFILLER_0_12_357 VGND VGND VPWR VPWR sky130_fd_sc_hd__decap_6
X_2198_ clknet_leaf_0_clk _0338_ VGND VGND VPWR VPWR data\[1\]\[50\] sky130_fd_sc_hd__dfxtp_1
X_1149_ net2 VGND VGND VPWR VPWR _0372_ sky130_fd_sc_hd__clkbuf_4
XFILLER_0_1_51 VGND VGND VPWR VPWR sky130_fd_sc_hd__decap_4
X_1218_ net287 _0425_ _0416_ VGND VGND VPWR VPWR _0426_ sky130_fd_sc_hd__mux2_1
XFILLER_0_47_298 VGND VGND VPWR VPWR sky130_fd_sc_hd__fill_1
Xhold53 data\[2\]\[29\] VGND VGND VPWR VPWR net204 sky130_fd_sc_hd__dlygate4sd3_1
Xhold64 data\[1\]\[33\] VGND VGND VPWR VPWR net215 sky130_fd_sc_hd__dlygate4sd3_1
Xhold42 data\[0\]\[32\] VGND VGND VPWR VPWR net193 sky130_fd_sc_hd__dlygate4sd3_1
Xhold31 data\[0\]\[52\] VGND VGND VPWR VPWR net182 sky130_fd_sc_hd__dlygate4sd3_1
Xhold97 data\[3\]\[15\] VGND VGND VPWR VPWR net248 sky130_fd_sc_hd__dlygate4sd3_1
Xhold86 data\[0\]\[67\] VGND VGND VPWR VPWR net237 sky130_fd_sc_hd__dlygate4sd3_1
Xhold75 data\[2\]\[17\] VGND VGND VPWR VPWR net226 sky130_fd_sc_hd__dlygate4sd3_1
Xhold20 data\[1\]\[17\] VGND VGND VPWR VPWR net171 sky130_fd_sc_hd__dlygate4sd3_1
XPHY_EDGE_ROW_7_Left_72 VGND VGND VPWR VPWR sky130_fd_sc_hd__decap_3
XFILLER_0_6_29 VGND VGND VPWR VPWR sky130_fd_sc_hd__fill_2
X_2121_ clknet_leaf_7_clk _0261_ VGND VGND VPWR VPWR data\[3\]\[45\] sky130_fd_sc_hd__dfxtp_1
XTAP_TAPCELL_ROW_49_455 VGND VPWR sky130_fd_sc_hd__tapvpwrvgnd_1
X_2052_ clknet_leaf_5_clk _0192_ VGND VGND VPWR VPWR net119 sky130_fd_sc_hd__dfxtp_1
X_1003_ _0829_ VGND VGND VPWR VPWR _0014_ sky130_fd_sc_hd__clkbuf_1
X_1905_ clknet_leaf_7_clk _0045_ VGND VGND VPWR VPWR data\[2\]\[45\] sky130_fd_sc_hd__dfxtp_1
XFILLER_0_32_62 VGND VGND VPWR VPWR sky130_fd_sc_hd__decap_6
XTAP_TAPCELL_ROW_32_344 VGND VPWR sky130_fd_sc_hd__tapvpwrvgnd_1
XFILLER_0_29_254 VPWR VGND VPWR VGND sky130_ef_sc_hd__decap_12
X_1767_ _0722_ VGND VGND VPWR VPWR _0315_ sky130_fd_sc_hd__clkbuf_1
XFILLER_0_4_365 VPWR VGND VPWR VGND sky130_ef_sc_hd__decap_12
XFILLER_0_4_321 VPWR VGND VPWR VGND sky130_ef_sc_hd__decap_12
XPHY_EDGE_ROW_6_Right_6 VGND VGND VPWR VPWR sky130_fd_sc_hd__decap_3
X_1836_ net219 _0415_ _0758_ VGND VGND VPWR VPWR _0759_ sky130_fd_sc_hd__mux2_1
XFILLER_0_12_165 VGND VGND VPWR VPWR sky130_fd_sc_hd__fill_1
X_1698_ net338 _0437_ _0678_ VGND VGND VPWR VPWR _0686_ sky130_fd_sc_hd__mux2_1
XFILLER_0_35_279 VGND VGND VPWR VPWR sky130_fd_sc_hd__fill_1
Xoutput98 net98 VGND VGND VPWR VPWR rdata[29] sky130_fd_sc_hd__clkbuf_4
XFILLER_0_43_290 VGND VGND VPWR VPWR sky130_fd_sc_hd__fill_2
XPHY_EDGE_ROW_33_Left_98 VGND VGND VPWR VPWR sky130_fd_sc_hd__decap_3
Xoutput87 net87 VGND VGND VPWR VPWR rdata[19] sky130_fd_sc_hd__buf_2
XTAP_TAPCELL_ROW_46_436 VGND VPWR sky130_fd_sc_hd__tapvpwrvgnd_1
XPHY_EDGE_ROW_59_Right_59 VGND VGND VPWR VPWR sky130_fd_sc_hd__decap_3
XTAP_TAPCELL_ROW_54_491 VGND VPWR sky130_fd_sc_hd__tapvpwrvgnd_1
X_1621_ net274 _0883_ _0645_ VGND VGND VPWR VPWR _0646_ sky130_fd_sc_hd__mux2_1
X_1552_ _0608_ VGND VGND VPWR VPWR _0214_ sky130_fd_sc_hd__clkbuf_1
XFILLER_0_1_335 VGND VGND VPWR VPWR sky130_fd_sc_hd__fill_1
X_1483_ _0572_ VGND VGND VPWR VPWR _0181_ sky130_fd_sc_hd__clkbuf_1
X_2104_ clknet_leaf_11_clk _0244_ VGND VGND VPWR VPWR data\[3\]\[28\] sky130_fd_sc_hd__dfxtp_1
X_2035_ clknet_leaf_12_clk _0175_ VGND VGND VPWR VPWR net101 sky130_fd_sc_hd__dfxtp_1
XFILLER_0_49_305 VGND VGND VPWR VPWR sky130_fd_sc_hd__decap_8
XFILLER_0_43_83 VGND VGND VPWR VPWR sky130_fd_sc_hd__fill_2
XFILLER_0_11_6 VPWR VGND VPWR VGND sky130_ef_sc_hd__decap_12
XFILLER_0_17_202 VGND VGND VPWR VPWR sky130_fd_sc_hd__fill_2
Xhold342 net97 VGND VGND VPWR VPWR net493 sky130_fd_sc_hd__dlygate4sd3_1
X_1819_ net192 _0388_ _0747_ VGND VGND VPWR VPWR _0750_ sky130_fd_sc_hd__mux2_1
Xhold320 net128 VGND VGND VPWR VPWR net471 sky130_fd_sc_hd__dlygate4sd3_1
Xhold353 net110 VGND VGND VPWR VPWR net504 sky130_fd_sc_hd__dlygate4sd3_1
Xhold331 net81 VGND VGND VPWR VPWR net482 sky130_fd_sc_hd__dlygate4sd3_1
XTAP_TAPCELL_ROW_51_472 VGND VPWR sky130_fd_sc_hd__tapvpwrvgnd_1
XTAP_TAPCELL_ROW_43_417 VGND VPWR sky130_fd_sc_hd__tapvpwrvgnd_1
XFILLER_0_64_27 VGND VGND VPWR VPWR sky130_fd_sc_hd__fill_1
XTAP_TAPCELL_ROW_8_194 VGND VPWR sky130_fd_sc_hd__tapvpwrvgnd_1
XFILLER_0_54_363 VGND VGND VPWR VPWR sky130_fd_sc_hd__fill_1
X_0983_ _0774_ VGND VGND VPWR VPWR _0814_ sky130_fd_sc_hd__buf_4
XFILLER_0_13_31 VGND VGND VPWR VPWR sky130_fd_sc_hd__decap_3
X_1604_ net413 _0856_ _0634_ VGND VGND VPWR VPWR _0637_ sky130_fd_sc_hd__mux2_1
X_1535_ net455 _0421_ _0597_ VGND VGND VPWR VPWR _0600_ sky130_fd_sc_hd__mux2_1
XTAP_TAPCELL_ROW_57_509 VGND VPWR sky130_fd_sc_hd__tapvpwrvgnd_1
X_1466_ _0563_ VGND VGND VPWR VPWR _0173_ sky130_fd_sc_hd__clkbuf_1
X_1397_ _0527_ VGND VGND VPWR VPWR _0140_ sky130_fd_sc_hd__clkbuf_1
XFILLER_0_49_124 VGND VGND VPWR VPWR sky130_fd_sc_hd__fill_1
XFILLER_0_49_113 VGND VGND VPWR VPWR sky130_fd_sc_hd__fill_2
X_2018_ clknet_leaf_20_clk _0158_ VGND VGND VPWR VPWR net82 sky130_fd_sc_hd__dfxtp_1
XFILLER_0_60_377 VGND VGND VPWR VPWR sky130_fd_sc_hd__decap_3
XFILLER_0_60_333 VPWR VGND VPWR VGND sky130_ef_sc_hd__decap_12
Xhold150 data\[1\]\[37\] VGND VGND VPWR VPWR net301 sky130_fd_sc_hd__dlygate4sd3_1
Xhold172 data\[0\]\[47\] VGND VGND VPWR VPWR net323 sky130_fd_sc_hd__dlygate4sd3_1
Xhold161 data\[3\]\[38\] VGND VGND VPWR VPWR net312 sky130_fd_sc_hd__dlygate4sd3_1
Xhold194 data\[2\]\[38\] VGND VGND VPWR VPWR net345 sky130_fd_sc_hd__dlygate4sd3_1
Xhold183 data\[3\]\[65\] VGND VGND VPWR VPWR net334 sky130_fd_sc_hd__dlygate4sd3_1
XFILLER_0_50_29 VGND VGND VPWR VPWR sky130_fd_sc_hd__decap_4
X_1320_ _0487_ VGND VGND VPWR VPWR _0103_ sky130_fd_sc_hd__clkbuf_1
XFILLER_0_11_219 VGND VGND VPWR VPWR sky130_fd_sc_hd__decap_4
X_1182_ net445 _0397_ _0382_ VGND VGND VPWR VPWR _0398_ sky130_fd_sc_hd__mux2_1
X_1251_ _0450_ VGND VGND VPWR VPWR _0071_ sky130_fd_sc_hd__clkbuf_1
XTAP_TAPCELL_ROW_62_545 VGND VPWR sky130_fd_sc_hd__tapvpwrvgnd_1
XPHY_EDGE_ROW_20_Left_85 VGND VGND VPWR VPWR sky130_fd_sc_hd__decap_3
XFILLER_0_24_41 VGND VGND VPWR VPWR sky130_fd_sc_hd__decap_4
XFILLER_0_24_63 VGND VGND VPWR VPWR sky130_fd_sc_hd__decap_3
X_0966_ net426 _0800_ _0780_ VGND VGND VPWR VPWR _0801_ sky130_fd_sc_hd__mux2_1
XFILLER_0_57_3 VPWR VGND VPWR VGND sky130_ef_sc_hd__decap_12
X_1449_ net242 _0852_ _0553_ VGND VGND VPWR VPWR _0555_ sky130_fd_sc_hd__mux2_1
X_1518_ net505 _0393_ _0586_ VGND VGND VPWR VPWR _0591_ sky130_fd_sc_hd__mux2_1
XFILLER_0_4_95 VGND VGND VPWR VPWR sky130_fd_sc_hd__fill_1
XFILLER_0_52_119 VGND VGND VPWR VPWR sky130_fd_sc_hd__fill_1
XFILLER_0_45_160 VGND VGND VPWR VPWR sky130_fd_sc_hd__fill_1
XFILLER_0_60_141 VGND VGND VPWR VPWR sky130_fd_sc_hd__decap_3
X_1303_ _0478_ VGND VGND VPWR VPWR _0095_ sky130_fd_sc_hd__clkbuf_1
XFILLER_0_19_41 VGND VGND VPWR VPWR sky130_fd_sc_hd__decap_4
X_1096_ _0797_ VGND VGND VPWR VPWR _0901_ sky130_fd_sc_hd__buf_4
X_1165_ net50 _0384_ _0380_ VGND VGND VPWR VPWR _0385_ sky130_fd_sc_hd__mux2_1
X_1234_ net381 _0437_ _0416_ VGND VGND VPWR VPWR _0438_ sky130_fd_sc_hd__mux2_1
XFILLER_0_19_85 VGND VGND VPWR VPWR sky130_fd_sc_hd__decap_4
XFILLER_0_42_141 VGND VGND VPWR VPWR sky130_fd_sc_hd__fill_1
XFILLER_0_30_347 VGND VGND VPWR VPWR sky130_fd_sc_hd__fill_1
X_1998_ clknet_leaf_28_clk _0138_ VGND VGND VPWR VPWR data\[0\]\[66\] sky130_fd_sc_hd__dfxtp_1
X_0949_ _0787_ VGND VGND VPWR VPWR _0002_ sky130_fd_sc_hd__clkbuf_1
XFILLER_0_15_377 VGND VGND VPWR VPWR sky130_fd_sc_hd__fill_2
XTAP_TAPCELL_ROW_38_383 VGND VPWR sky130_fd_sc_hd__tapvpwrvgnd_1
XFILLER_0_33_152 VPWR VGND VPWR VGND sky130_ef_sc_hd__decap_12
XFILLER_0_18_171 VGND VGND VPWR VPWR sky130_fd_sc_hd__decap_4
XFILLER_0_0_219 VGND VGND VPWR VPWR sky130_fd_sc_hd__fill_2
XFILLER_0_56_222 VGND VGND VPWR VPWR sky130_fd_sc_hd__decap_3
X_1921_ clknet_leaf_29_clk _0061_ VGND VGND VPWR VPWR data\[2\]\[61\] sky130_fd_sc_hd__dfxtp_1
X_1852_ net252 _0440_ _0758_ VGND VGND VPWR VPWR _0767_ sky130_fd_sc_hd__mux2_1
XFILLER_0_21_31 VGND VGND VPWR VPWR sky130_fd_sc_hd__decap_4
X_1783_ net279 _0899_ _0725_ VGND VGND VPWR VPWR _0731_ sky130_fd_sc_hd__mux2_1
X_1079_ _0888_ VGND VGND VPWR VPWR _0031_ sky130_fd_sc_hd__clkbuf_1
X_1148_ _0371_ VGND VGND VPWR VPWR _0047_ sky130_fd_sc_hd__clkbuf_1
XFILLER_0_46_83 VGND VGND VPWR VPWR sky130_fd_sc_hd__fill_1
X_2197_ clknet_leaf_2_clk _0337_ VGND VGND VPWR VPWR data\[1\]\[49\] sky130_fd_sc_hd__dfxtp_1
XTAP_TAPCELL_ROW_35_364 VGND VPWR sky130_fd_sc_hd__tapvpwrvgnd_1
X_1217_ net63 _0424_ _0414_ VGND VGND VPWR VPWR _0425_ sky130_fd_sc_hd__mux2_1
XPHY_EDGE_ROW_42_Left_107 VGND VGND VPWR VPWR sky130_fd_sc_hd__decap_3
Xhold32 data\[3\]\[37\] VGND VGND VPWR VPWR net183 sky130_fd_sc_hd__dlygate4sd3_1
Xhold10 data\[3\]\[42\] VGND VGND VPWR VPWR net161 sky130_fd_sc_hd__dlygate4sd3_1
Xhold43 data\[0\]\[37\] VGND VGND VPWR VPWR net194 sky130_fd_sc_hd__dlygate4sd3_1
Xhold87 data\[2\]\[44\] VGND VGND VPWR VPWR net238 sky130_fd_sc_hd__dlygate4sd3_1
Xhold21 data\[2\]\[26\] VGND VGND VPWR VPWR net172 sky130_fd_sc_hd__dlygate4sd3_1
Xhold65 data\[0\]\[16\] VGND VGND VPWR VPWR net216 sky130_fd_sc_hd__dlygate4sd3_1
Xhold76 data\[3\]\[3\] VGND VGND VPWR VPWR net227 sky130_fd_sc_hd__dlygate4sd3_1
Xhold98 data\[3\]\[7\] VGND VGND VPWR VPWR net249 sky130_fd_sc_hd__dlygate4sd3_1
Xhold54 data\[1\]\[13\] VGND VGND VPWR VPWR net205 sky130_fd_sc_hd__dlygate4sd3_1
XPHY_EDGE_ROW_51_Left_116 VGND VGND VPWR VPWR sky130_fd_sc_hd__decap_3
XFILLER_0_53_225 VGND VGND VPWR VPWR sky130_fd_sc_hd__decap_6
X_2120_ clknet_leaf_6_clk _0260_ VGND VGND VPWR VPWR data\[3\]\[44\] sky130_fd_sc_hd__dfxtp_1
XPHY_EDGE_ROW_60_Left_125 VGND VGND VPWR VPWR sky130_fd_sc_hd__decap_3
XFILLER_0_21_199 VGND VGND VPWR VPWR sky130_fd_sc_hd__fill_1
XTAP_TAPCELL_ROW_49_456 VGND VPWR sky130_fd_sc_hd__tapvpwrvgnd_1
X_2051_ clknet_leaf_5_clk _0191_ VGND VGND VPWR VPWR net118 sky130_fd_sc_hd__dfxtp_1
X_1002_ net186 _0828_ _0816_ VGND VGND VPWR VPWR _0829_ sky130_fd_sc_hd__mux2_1
XFILLER_0_16_64 VPWR VGND VPWR VGND sky130_ef_sc_hd__decap_12
X_1904_ clknet_leaf_6_clk _0044_ VGND VGND VPWR VPWR data\[2\]\[44\] sky130_fd_sc_hd__dfxtp_1
XFILLER_0_44_214 VGND VGND VPWR VPWR sky130_fd_sc_hd__fill_1
XTAP_TAPCELL_ROW_32_345 VGND VPWR sky130_fd_sc_hd__tapvpwrvgnd_1
XFILLER_0_32_85 VGND VGND VPWR VPWR sky130_fd_sc_hd__decap_6
XFILLER_0_29_266 VGND VGND VPWR VPWR sky130_fd_sc_hd__fill_1
XFILLER_0_29_233 VGND VGND VPWR VPWR sky130_fd_sc_hd__fill_1
XFILLER_0_4_333 VPWR VGND VPWR VGND sky130_ef_sc_hd__decap_12
X_1835_ _0691_ VGND VGND VPWR VPWR _0758_ sky130_fd_sc_hd__buf_4
X_1766_ net407 _0872_ _0714_ VGND VGND VPWR VPWR _0722_ sky130_fd_sc_hd__mux2_1
XFILLER_0_4_377 VGND VGND VPWR VPWR sky130_fd_sc_hd__fill_2
XFILLER_0_12_122 VGND VGND VPWR VPWR sky130_fd_sc_hd__decap_3
X_1697_ _0685_ VGND VGND VPWR VPWR _0282_ sky130_fd_sc_hd__clkbuf_1
XFILLER_0_35_247 VGND VGND VPWR VPWR sky130_fd_sc_hd__fill_1
XFILLER_0_35_225 VGND VGND VPWR VPWR sky130_fd_sc_hd__decap_6
XFILLER_0_7_182 VGND VGND VPWR VPWR sky130_fd_sc_hd__decap_3
Xoutput77 net77 VGND VGND VPWR VPWR rdata[0] sky130_fd_sc_hd__clkbuf_4
Xoutput88 net88 VGND VGND VPWR VPWR rdata[1] sky130_fd_sc_hd__clkbuf_4
Xoutput99 net99 VGND VGND VPWR VPWR rdata[2] sky130_fd_sc_hd__clkbuf_4
XFILLER_0_9_3 VGND VGND VPWR VPWR sky130_fd_sc_hd__decap_6
XTAP_TAPCELL_ROW_46_437 VGND VPWR sky130_fd_sc_hd__tapvpwrvgnd_1
XTAP_TAPCELL_ROW_54_492 VGND VPWR sky130_fd_sc_hd__tapvpwrvgnd_1
XFILLER_0_26_258 VGND VGND VPWR VPWR sky130_fd_sc_hd__fill_1
XFILLER_0_26_236 VPWR VGND VPWR VGND sky130_ef_sc_hd__decap_12
X_1482_ net454 _0905_ _0564_ VGND VGND VPWR VPWR _0572_ sky130_fd_sc_hd__mux2_1
X_1620_ _0611_ VGND VGND VPWR VPWR _0645_ sky130_fd_sc_hd__buf_4
X_1551_ net507 _0445_ _0778_ VGND VGND VPWR VPWR _0608_ sky130_fd_sc_hd__mux2_1
X_2103_ clknet_leaf_14_clk _0243_ VGND VGND VPWR VPWR data\[3\]\[27\] sky130_fd_sc_hd__dfxtp_1
XFILLER_0_64_309 VPWR VGND VPWR VGND sky130_ef_sc_hd__decap_12
X_2034_ clknet_leaf_11_clk _0174_ VGND VGND VPWR VPWR net100 sky130_fd_sc_hd__dfxtp_1