* NGSPICE file created from dff_ram_8x72.ext - technology: sky130A

* Black-box entry subcircuit for sky130_fd_sc_hd__mux2_1 abstract view
.subckt sky130_fd_sc_hd__mux2_1 A0 A1 S VGND VNB VPB VPWR X
.ends

* Black-box entry subcircuit for sky130_fd_sc_hd__fill_1 abstract view
.subckt sky130_fd_sc_hd__fill_1 VGND VNB VPB VPWR
.ends

* Black-box entry subcircuit for sky130_fd_sc_hd__clkbuf_1 abstract view
.subckt sky130_fd_sc_hd__clkbuf_1 A VGND VNB VPB VPWR X
.ends

* Black-box entry subcircuit for sky130_fd_sc_hd__nand2_1 abstract view
.subckt sky130_fd_sc_hd__nand2_1 A B VGND VNB VPB VPWR Y
.ends

* Black-box entry subcircuit for sky130_ef_sc_hd__decap_12 abstract view
.subckt sky130_ef_sc_hd__decap_12 VPWR VGND VPB VNB
.ends

* Black-box entry subcircuit for sky130_fd_sc_hd__decap_4 abstract view
.subckt sky130_fd_sc_hd__decap_4 VGND VNB VPB VPWR
.ends

* Black-box entry subcircuit for sky130_fd_sc_hd__decap_8 abstract view
.subckt sky130_fd_sc_hd__decap_8 VGND VNB VPB VPWR
.ends

* Black-box entry subcircuit for sky130_fd_sc_hd__fill_2 abstract view
.subckt sky130_fd_sc_hd__fill_2 VGND VNB VPB VPWR
.ends

* Black-box entry subcircuit for sky130_fd_sc_hd__dfxtp_1 abstract view
.subckt sky130_fd_sc_hd__dfxtp_1 CLK D VGND VNB VPB VPWR Q
.ends

* Black-box entry subcircuit for sky130_fd_sc_hd__tapvpwrvgnd_1 abstract view
.subckt sky130_fd_sc_hd__tapvpwrvgnd_1 VGND VPWR
.ends

* Black-box entry subcircuit for sky130_fd_sc_hd__dlygate4sd3_1 abstract view
.subckt sky130_fd_sc_hd__dlygate4sd3_1 A VGND VNB VPB VPWR X
.ends

* Black-box entry subcircuit for sky130_fd_sc_hd__decap_3 abstract view
.subckt sky130_fd_sc_hd__decap_3 VGND VNB VPB VPWR
.ends

* Black-box entry subcircuit for sky130_fd_sc_hd__mux4_1 abstract view
.subckt sky130_fd_sc_hd__mux4_1 A0 A1 A2 A3 S0 S1 VGND VNB VPB VPWR X
.ends

* Black-box entry subcircuit for sky130_fd_sc_hd__decap_6 abstract view
.subckt sky130_fd_sc_hd__decap_6 VGND VNB VPB VPWR
.ends

* Black-box entry subcircuit for sky130_fd_sc_hd__buf_4 abstract view
.subckt sky130_fd_sc_hd__buf_4 A VGND VNB VPB VPWR X
.ends

* Black-box entry subcircuit for sky130_fd_sc_hd__diode_2 abstract view
.subckt sky130_fd_sc_hd__diode_2 DIODE VGND VNB VPB VPWR
.ends

* Black-box entry subcircuit for sky130_fd_sc_hd__buf_1 abstract view
.subckt sky130_fd_sc_hd__buf_1 A VGND VNB VPB VPWR X
.ends

* Black-box entry subcircuit for sky130_fd_sc_hd__clkbuf_4 abstract view
.subckt sky130_fd_sc_hd__clkbuf_4 A VGND VNB VPB VPWR X
.ends

* Black-box entry subcircuit for sky130_fd_sc_hd__buf_2 abstract view
.subckt sky130_fd_sc_hd__buf_2 A VGND VNB VPB VPWR X
.ends

* Black-box entry subcircuit for sky130_fd_sc_hd__clkbuf_16 abstract view
.subckt sky130_fd_sc_hd__clkbuf_16 A VGND VNB VPB VPWR X
.ends

* Black-box entry subcircuit for sky130_fd_sc_hd__and3_1 abstract view
.subckt sky130_fd_sc_hd__and3_1 A B C VGND VNB VPB VPWR X
.ends

* Black-box entry subcircuit for sky130_fd_sc_hd__clkbuf_8 abstract view
.subckt sky130_fd_sc_hd__clkbuf_8 A VGND VNB VPB VPWR X
.ends

* Black-box entry subcircuit for sky130_fd_sc_hd__and3b_1 abstract view
.subckt sky130_fd_sc_hd__and3b_1 A_N B C VGND VNB VPB VPWR X
.ends

* Black-box entry subcircuit for sky130_fd_sc_hd__dlymetal6s2s_1 abstract view
.subckt sky130_fd_sc_hd__dlymetal6s2s_1 A VGND VNB VPB VPWR X
.ends

* Black-box entry subcircuit for sky130_fd_sc_hd__or3b_1 abstract view
.subckt sky130_fd_sc_hd__or3b_1 A B C_N VGND VNB VPB VPWR X
.ends

* Black-box entry subcircuit for sky130_fd_sc_hd__nor3_4 abstract view
.subckt sky130_fd_sc_hd__nor3_4 A B C VGND VNB VPB VPWR Y
.ends

* Black-box entry subcircuit for sky130_fd_sc_hd__nor3b_4 abstract view
.subckt sky130_fd_sc_hd__nor3b_4 A B C_N VGND VNB VPB VPWR Y
.ends

* Black-box entry subcircuit for sky130_fd_sc_hd__nor2_8 abstract view
.subckt sky130_fd_sc_hd__nor2_8 A B VGND VNB VPB VPWR Y
.ends

* Black-box entry subcircuit for sky130_fd_sc_hd__nor2b_4 abstract view
.subckt sky130_fd_sc_hd__nor2b_4 A B_N VGND VNB VPB VPWR Y
.ends

* Black-box entry subcircuit for sky130_fd_sc_hd__or2b_2 abstract view
.subckt sky130_fd_sc_hd__or2b_2 A B_N VGND VNB VPB VPWR X
.ends

* Black-box entry subcircuit for sky130_fd_sc_hd__and2b_1 abstract view
.subckt sky130_fd_sc_hd__and2b_1 A_N B VGND VNB VPB VPWR X
.ends

.subckt dff_ram_8x72 VGND VPWR address[0] address[1] address[2] clk rdata[0] rdata[10]
+ rdata[11] rdata[12] rdata[13] rdata[14] rdata[15] rdata[16] rdata[17] rdata[18]
+ rdata[19] rdata[1] rdata[20] rdata[21] rdata[22] rdata[23] rdata[24] rdata[25] rdata[26]
+ rdata[27] rdata[28] rdata[29] rdata[2] rdata[30] rdata[31] rdata[32] rdata[33] rdata[34]
+ rdata[35] rdata[36] rdata[37] rdata[38] rdata[39] rdata[3] rdata[40] rdata[41] rdata[42]
+ rdata[43] rdata[44] rdata[45] rdata[46] rdata[47] rdata[48] rdata[49] rdata[4] rdata[50]
+ rdata[51] rdata[52] rdata[53] rdata[54] rdata[55] rdata[56] rdata[57] rdata[58]
+ rdata[59] rdata[5] rdata[60] rdata[61] rdata[62] rdata[63] rdata[64] rdata[65] rdata[66]
+ rdata[67] rdata[68] rdata[69] rdata[6] rdata[70] rdata[71] rdata[7] rdata[8] rdata[9]
+ wdata[0] wdata[10] wdata[11] wdata[12] wdata[13] wdata[14] wdata[15] wdata[16] wdata[17]
+ wdata[18] wdata[19] wdata[1] wdata[20] wdata[21] wdata[22] wdata[23] wdata[24] wdata[25]
+ wdata[26] wdata[27] wdata[28] wdata[29] wdata[2] wdata[30] wdata[31] wdata[32] wdata[33]
+ wdata[34] wdata[35] wdata[36] wdata[37] wdata[38] wdata[39] wdata[3] wdata[40] wdata[41]
+ wdata[42] wdata[43] wdata[44] wdata[45] wdata[46] wdata[47] wdata[48] wdata[49]
+ wdata[4] wdata[50] wdata[51] wdata[52] wdata[53] wdata[54] wdata[55] wdata[56] wdata[57]
+ wdata[58] wdata[59] wdata[5] wdata[60] wdata[61] wdata[62] wdata[63] wdata[64] wdata[65]
+ wdata[66] wdata[67] wdata[68] wdata[69] wdata[6] wdata[70] wdata[71] wdata[7] wdata[8]
+ wdata[9] wr
X_3155_ net429 _1229_ _1520_ VGND VGND VPWR VPWR _1521_ sky130_fd_sc_hd__mux2_1
XFILLER_0_27_60 VGND VGND VPWR VPWR sky130_fd_sc_hd__fill_1
X_3086_ _1484_ VGND VGND VPWR VPWR _0305_ sky130_fd_sc_hd__clkbuf_1
X_2106_ net76 net3 VGND VGND VPWR VPWR _0810_ sky130_fd_sc_hd__nand2_1
XFILLER_0_89_461 VPWR VGND VPWR VGND sky130_ef_sc_hd__decap_12
X_2037_ instance_1.rdata\[43\] instance_2.rdata\[43\] _0766_ VGND VGND VPWR VPWR _0770_
+ sky130_fd_sc_hd__mux2_1
XFILLER_0_49_314 VGND VGND VPWR VPWR sky130_fd_sc_hd__fill_1
XFILLER_0_76_166 VGND VGND VPWR VPWR sky130_fd_sc_hd__fill_1
XFILLER_0_9_444 VGND VGND VPWR VPWR sky130_fd_sc_hd__decap_4
XFILLER_0_43_92 VGND VGND VPWR VPWR sky130_fd_sc_hd__decap_8
XFILLER_0_91_125 VPWR VGND VPWR VGND sky130_ef_sc_hd__decap_12
XFILLER_0_17_222 VGND VGND VPWR VPWR sky130_fd_sc_hd__fill_2
X_3988_ clknet_leaf_22_clk _0028_ VGND VGND VPWR VPWR instance_2.data\[2\]\[28\] sky130_fd_sc_hd__dfxtp_1
XFILLER_0_91_169 VPWR VGND VPWR VGND sky130_ef_sc_hd__decap_12
X_2939_ _0880_ net423 _1406_ VGND VGND VPWR VPWR _1407_ sky130_fd_sc_hd__mux2_1
XTAP_TAPCELL_ROW_20_389 VGND VPWR sky130_fd_sc_hd__tapvpwrvgnd_1
X_4609_ clknet_leaf_62_clk _0649_ VGND VGND VPWR VPWR instance_2.data\[3\]\[1\] sky130_fd_sc_hd__dfxtp_1
Xhold362 instance_2.data\[1\]\[12\] VGND VGND VPWR VPWR net512 sky130_fd_sc_hd__dlygate4sd3_1
Xhold340 instance_1.data\[0\]\[11\] VGND VGND VPWR VPWR net490 sky130_fd_sc_hd__dlygate4sd3_1
Xhold351 instance_1.rdata\[20\] VGND VGND VPWR VPWR net501 sky130_fd_sc_hd__dlygate4sd3_1
Xhold373 instance_1.data\[0\]\[7\] VGND VGND VPWR VPWR net523 sky130_fd_sc_hd__dlygate4sd3_1
Xhold395 instance_1.data\[1\]\[62\] VGND VGND VPWR VPWR net545 sky130_fd_sc_hd__dlygate4sd3_1
Xhold384 instance_2.data\[2\]\[63\] VGND VGND VPWR VPWR net534 sky130_fd_sc_hd__dlygate4sd3_1
XTAP_TAPCELL_ROW_56_732 VGND VPWR sky130_fd_sc_hd__tapvpwrvgnd_1
XTAP_TAPCELL_ROW_28_467 VGND VPWR sky130_fd_sc_hd__tapvpwrvgnd_1
XFILLER_0_28_509 VPWR VGND VPWR VGND sky130_ef_sc_hd__decap_12
XFILLER_0_67_199 VGND VGND VPWR VPWR sky130_fd_sc_hd__decap_3
XTAP_TAPCELL_ROW_11_301 VGND VPWR sky130_fd_sc_hd__tapvpwrvgnd_1
XFILLER_0_48_391 VGND VGND VPWR VPWR sky130_fd_sc_hd__decap_4
XFILLER_0_70_309 VPWR VGND VPWR VGND sky130_ef_sc_hd__decap_12
XPHY_EDGE_ROW_39_Left_132 VGND VGND VPWR VPWR sky130_fd_sc_hd__decap_3
XFILLER_0_3_39 VPWR VGND VPWR VGND sky130_ef_sc_hd__decap_12
XFILLER_0_64_14 VGND VGND VPWR VPWR sky130_fd_sc_hd__fill_1
XPHY_EDGE_ROW_48_Left_141 VGND VGND VPWR VPWR sky130_fd_sc_hd__decap_3
XFILLER_0_86_475 VGND VGND VPWR VPWR sky130_fd_sc_hd__fill_1
X_3911_ _1918_ VGND VGND VPWR VPWR _0696_ sky130_fd_sc_hd__clkbuf_1
XFILLER_0_13_51 VGND VGND VPWR VPWR sky130_fd_sc_hd__decap_4
X_3842_ _1882_ VGND VGND VPWR VPWR _0663_ sky130_fd_sc_hd__clkbuf_1
XFILLER_0_39_391 VGND VGND VPWR VPWR sky130_fd_sc_hd__fill_1
X_3773_ _1845_ VGND VGND VPWR VPWR _0631_ sky130_fd_sc_hd__clkbuf_1
XFILLER_0_89_55 VGND VGND VPWR VPWR sky130_fd_sc_hd__fill_1
XFILLER_0_81_180 VGND VGND VPWR VPWR sky130_fd_sc_hd__decap_4
X_2724_ instance_1.data\[0\]\[68\] instance_1.data\[1\]\[68\] instance_1.data\[2\]\[68\]
+ instance_1.data\[3\]\[68\] _0802_ _1258_ VGND VGND VPWR VPWR _1288_ sky130_fd_sc_hd__mux4_1
XFILLER_0_42_545 VGND VGND VPWR VPWR sky130_fd_sc_hd__decap_4
XPHY_EDGE_ROW_57_Left_150 VGND VGND VPWR VPWR sky130_fd_sc_hd__decap_3
X_2655_ _1235_ VGND VGND VPWR VPWR _0123_ sky130_fd_sc_hd__clkbuf_1
X_2586_ net33 _1181_ _1165_ VGND VGND VPWR VPWR _1182_ sky130_fd_sc_hd__mux2_1
X_4325_ clknet_leaf_54_clk _0365_ VGND VGND VPWR VPWR instance_1.rdata\[5\] sky130_fd_sc_hd__dfxtp_1
XFILLER_0_10_475 VGND VGND VPWR VPWR sky130_fd_sc_hd__fill_1
X_4256_ clknet_leaf_57_clk _0296_ VGND VGND VPWR VPWR instance_1.data\[3\]\[8\] sky130_fd_sc_hd__dfxtp_1
X_3207_ _1548_ VGND VGND VPWR VPWR _0362_ sky130_fd_sc_hd__clkbuf_1
X_4187_ clknet_leaf_48_clk _0227_ VGND VGND VPWR VPWR instance_2.data\[0\]\[11\] sky130_fd_sc_hd__dfxtp_1
X_3138_ net570 _1203_ _1509_ VGND VGND VPWR VPWR _1512_ sky130_fd_sc_hd__mux2_1
X_3069_ _1475_ VGND VGND VPWR VPWR _0297_ sky130_fd_sc_hd__clkbuf_1
XFILLER_0_49_100 VGND VGND VPWR VPWR sky130_fd_sc_hd__fill_2
XFILLER_0_49_111 VGND VGND VPWR VPWR sky130_fd_sc_hd__fill_1
XTAP_TAPCELL_ROW_53_702 VGND VPWR sky130_fd_sc_hd__tapvpwrvgnd_1
XTAP_TAPCELL_ROW_25_437 VGND VPWR sky130_fd_sc_hd__tapvpwrvgnd_1
XFILLER_0_49_166 VGND VGND VPWR VPWR sky130_fd_sc_hd__fill_2
XFILLER_0_9_252 VGND VGND VPWR VPWR sky130_fd_sc_hd__decap_8
XFILLER_0_92_489 VPWR VGND VPWR VGND sky130_ef_sc_hd__decap_12
XFILLER_0_60_353 VGND VGND VPWR VPWR sky130_fd_sc_hd__decap_8
Xhold170 instance_1.data\[3\]\[67\] VGND VGND VPWR VPWR net320 sky130_fd_sc_hd__dlygate4sd3_1
Xhold181 instance_1.data\[2\]\[17\] VGND VGND VPWR VPWR net331 sky130_fd_sc_hd__dlygate4sd3_1
Xhold192 instance_1.data\[2\]\[28\] VGND VGND VPWR VPWR net342 sky130_fd_sc_hd__dlygate4sd3_1
XFILLER_0_18_29 VPWR VGND VPWR VGND sky130_ef_sc_hd__decap_12
XFILLER_0_68_453 VGND VGND VPWR VPWR sky130_fd_sc_hd__decap_6
XFILLER_0_55_169 VPWR VGND VPWR VGND sky130_ef_sc_hd__decap_12
XFILLER_0_24_545 VGND VGND VPWR VPWR sky130_fd_sc_hd__fill_1
XFILLER_0_51_364 VGND VGND VPWR VPWR sky130_fd_sc_hd__fill_1
XFILLER_0_59_25 VGND VGND VPWR VPWR sky130_fd_sc_hd__fill_1
X_2440_ instance_1.data\[0\]\[3\] instance_1.data\[1\]\[3\] instance_1.data\[2\]\[3\]
+ instance_1.data\[3\]\[3\] _0808_ _1054_ VGND VGND VPWR VPWR _1069_ sky130_fd_sc_hd__mux4_1
X_2371_ instance_2.data\[0\]\[60\] instance_2.data\[1\]\[60\] instance_2.data\[2\]\[60\]
+ instance_2.data\[3\]\[60\] _0991_ _1004_ VGND VGND VPWR VPWR _1015_ sky130_fd_sc_hd__mux4_1
X_4110_ clknet_leaf_55_clk _0150_ VGND VGND VPWR VPWR instance_2.data\[1\]\[6\] sky130_fd_sc_hd__dfxtp_1
X_4041_ clknet_leaf_57_clk _0081_ VGND VGND VPWR VPWR instance_1.data\[1\]\[9\] sky130_fd_sc_hd__dfxtp_1
XTAP_TAPCELL_ROW_67_838 VGND VPWR sky130_fd_sc_hd__tapvpwrvgnd_1
XFILLER_0_86_283 VGND VGND VPWR VPWR sky130_fd_sc_hd__decap_8
XTAP_TAPCELL_ROW_22_407 VGND VPWR sky130_fd_sc_hd__tapvpwrvgnd_1
X_3825_ _1873_ VGND VGND VPWR VPWR _0655_ sky130_fd_sc_hd__clkbuf_1
X_3756_ _1836_ VGND VGND VPWR VPWR _0623_ sky130_fd_sc_hd__clkbuf_1
XFILLER_0_27_383 VGND VGND VPWR VPWR sky130_fd_sc_hd__fill_1
XFILLER_0_54_180 VGND VGND VPWR VPWR sky130_fd_sc_hd__decap_8
X_2707_ _1275_ VGND VGND VPWR VPWR _0135_ sky130_fd_sc_hd__clkbuf_1
XTAP_TAPCELL_ROW_30_484 VGND VPWR sky130_fd_sc_hd__tapvpwrvgnd_1
XFILLER_0_71_3 VGND VGND VPWR VPWR sky130_fd_sc_hd__fill_1
X_3687_ _1800_ VGND VGND VPWR VPWR _0590_ sky130_fd_sc_hd__clkbuf_1
X_2638_ net46 _1221_ _1199_ VGND VGND VPWR VPWR _1222_ sky130_fd_sc_hd__mux2_1
X_2569_ net29 _1168_ _1165_ VGND VGND VPWR VPWR _1169_ sky130_fd_sc_hd__mux2_1
X_4308_ clknet_leaf_2_clk _0348_ VGND VGND VPWR VPWR instance_1.data\[3\]\[60\] sky130_fd_sc_hd__dfxtp_1
X_4239_ clknet_leaf_9_clk _0279_ VGND VGND VPWR VPWR instance_2.data\[0\]\[63\] sky130_fd_sc_hd__dfxtp_1
XTAP_TAPCELL_ROW_38_562 VGND VPWR sky130_fd_sc_hd__tapvpwrvgnd_1
XFILLER_0_92_275 VGND VGND VPWR VPWR sky130_fd_sc_hd__fill_1
XFILLER_0_92_253 VGND VGND VPWR VPWR sky130_fd_sc_hd__fill_2
XFILLER_0_65_489 VGND VGND VPWR VPWR sky130_fd_sc_hd__decap_3
XFILLER_0_80_437 VPWR VGND VPWR VGND sky130_ef_sc_hd__decap_12
XTAP_TAPCELL_ROW_64_808 VGND VPWR sky130_fd_sc_hd__tapvpwrvgnd_1
XFILLER_0_75_209 VGND VGND VPWR VPWR sky130_fd_sc_hd__decap_4
XFILLER_0_0_29 VPWR VGND VPWR VGND sky130_ef_sc_hd__decap_12
XFILLER_0_83_220 VGND VGND VPWR VPWR sky130_fd_sc_hd__decap_4
XTAP_TAPCELL_ROW_72_885 VGND VPWR sky130_fd_sc_hd__tapvpwrvgnd_1
XFILLER_0_28_125 VGND VGND VPWR VPWR sky130_fd_sc_hd__decap_3
XFILLER_0_28_169 VGND VGND VPWR VPWR sky130_fd_sc_hd__decap_8
X_4590_ clknet_leaf_15_clk _0630_ VGND VGND VPWR VPWR instance_1.data\[0\]\[54\] sky130_fd_sc_hd__dfxtp_1
XFILLER_0_9_27 VPWR VGND VPWR VGND sky130_ef_sc_hd__decap_12
X_3610_ _0981_ net677 _1759_ VGND VGND VPWR VPWR _1760_ sky130_fd_sc_hd__mux2_1
X_3541_ _1723_ VGND VGND VPWR VPWR _0521_ sky130_fd_sc_hd__clkbuf_1
XFILLER_0_10_41 VPWR VGND VPWR VGND sky130_ef_sc_hd__decap_12
XFILLER_0_3_258 VGND VGND VPWR VPWR sky130_fd_sc_hd__fill_1
X_3472_ _1687_ VGND VGND VPWR VPWR _0488_ sky130_fd_sc_hd__clkbuf_1
X_2423_ instance_1.data\[0\]\[0\] instance_1.data\[1\]\[0\] instance_1.data\[2\]\[0\]
+ instance_1.data\[3\]\[0\] _0808_ _1054_ VGND VGND VPWR VPWR _1055_ sky130_fd_sc_hd__mux4_1
X_2354_ _1001_ net55 _0978_ VGND VGND VPWR VPWR _1002_ sky130_fd_sc_hd__mux2_1
X_2285_ _0812_ VGND VGND VPWR VPWR _0949_ sky130_fd_sc_hd__buf_4
XFILLER_0_79_526 VGND VGND VPWR VPWR sky130_fd_sc_hd__decap_8
X_4024_ clknet_leaf_9_clk _0064_ VGND VGND VPWR VPWR instance_2.data\[2\]\[64\] sky130_fd_sc_hd__dfxtp_1
XTAP_TAPCELL_ROW_35_532 VGND VPWR sky130_fd_sc_hd__tapvpwrvgnd_1
XFILLER_0_47_412 VGND VGND VPWR VPWR sky130_fd_sc_hd__fill_1
XFILLER_0_74_253 VGND VGND VPWR VPWR sky130_fd_sc_hd__decap_8
XFILLER_0_34_117 VGND VGND VPWR VPWR sky130_fd_sc_hd__decap_3
XFILLER_0_34_139 VGND VGND VPWR VPWR sky130_fd_sc_hd__fill_1
X_3808_ _1863_ VGND VGND VPWR VPWR _1864_ sky130_fd_sc_hd__buf_4
XFILLER_0_15_331 VGND VGND VPWR VPWR sky130_fd_sc_hd__decap_4
X_3739_ _1827_ VGND VGND VPWR VPWR _0615_ sky130_fd_sc_hd__clkbuf_1
XFILLER_0_15_386 VGND VGND VPWR VPWR sky130_fd_sc_hd__decap_3
XFILLER_0_42_161 VPWR VGND VPWR VGND sky130_ef_sc_hd__decap_12
XTAP_TAPCELL_ROW_7_268 VGND VPWR sky130_fd_sc_hd__tapvpwrvgnd_1
XFILLER_0_65_220 VGND VGND VPWR VPWR sky130_fd_sc_hd__decap_4
XFILLER_0_33_194 VPWR VGND VPWR VGND sky130_ef_sc_hd__decap_12
XTAP_TAPCELL_ROW_77_933 VGND VPWR sky130_fd_sc_hd__tapvpwrvgnd_1
X_2070_ instance_1.rdata\[59\] instance_2.rdata\[59\] _0777_ VGND VGND VPWR VPWR _0787_
+ sky130_fd_sc_hd__mux2_1
XTAP_TAPCELL_ROW_49_668 VGND VPWR sky130_fd_sc_hd__tapvpwrvgnd_1
XFILLER_0_76_518 VGND VGND VPWR VPWR sky130_fd_sc_hd__decap_3
XFILLER_0_88_389 VPWR VGND VPWR VGND sky130_ef_sc_hd__decap_12
X_2972_ _0934_ net786 _1417_ VGND VGND VPWR VPWR _1424_ sky130_fd_sc_hd__mux2_1
XTAP_TAPCELL_ROW_32_502 VGND VPWR sky130_fd_sc_hd__tapvpwrvgnd_1
XFILLER_0_84_551 VGND VGND VPWR VPWR sky130_fd_sc_hd__fill_1
X_4642_ clknet_leaf_32_clk _0682_ VGND VGND VPWR VPWR instance_2.data\[3\]\[34\] sky130_fd_sc_hd__dfxtp_1
XFILLER_0_71_223 VGND VGND VPWR VPWR sky130_fd_sc_hd__fill_1
XFILLER_0_21_51 VGND VGND VPWR VPWR sky130_fd_sc_hd__decap_4
X_4573_ clknet_leaf_30_clk _0613_ VGND VGND VPWR VPWR instance_1.data\[0\]\[37\] sky130_fd_sc_hd__dfxtp_1
XFILLER_0_4_545 VGND VGND VPWR VPWR sky130_fd_sc_hd__decap_6
XFILLER_0_21_95 VPWR VGND VPWR VGND sky130_ef_sc_hd__decap_12
Xhold703 instance_2.data\[0\]\[27\] VGND VGND VPWR VPWR net853 sky130_fd_sc_hd__dlygate4sd3_1
X_3524_ _1714_ VGND VGND VPWR VPWR _0513_ sky130_fd_sc_hd__clkbuf_1
Xhold714 instance_2.rdata\[62\] VGND VGND VPWR VPWR net864 sky130_fd_sc_hd__dlygate4sd3_1
X_3455_ _1678_ VGND VGND VPWR VPWR _0480_ sky130_fd_sc_hd__clkbuf_1
XFILLER_0_12_389 VPWR VGND VPWR VGND sky130_ef_sc_hd__decap_12
X_2406_ _1041_ net68 _1012_ VGND VGND VPWR VPWR _1042_ sky130_fd_sc_hd__mux2_1
X_3386_ _1642_ VGND VGND VPWR VPWR _0447_ sky130_fd_sc_hd__clkbuf_1
XTAP_TAPCELL_ROW_4_238 VGND VPWR sky130_fd_sc_hd__tapvpwrvgnd_1
XFILLER_0_34_3 VGND VGND VPWR VPWR sky130_fd_sc_hd__fill_1
X_2337_ _0988_ net51 _0978_ VGND VGND VPWR VPWR _0989_ sky130_fd_sc_hd__mux2_1
X_2268_ _0935_ VGND VGND VPWR VPWR _0036_ sky130_fd_sc_hd__clkbuf_1
X_4007_ clknet_leaf_21_clk _0047_ VGND VGND VPWR VPWR instance_2.data\[2\]\[47\] sky130_fd_sc_hd__dfxtp_1
X_2199_ _0882_ VGND VGND VPWR VPWR _0020_ sky130_fd_sc_hd__clkbuf_1
XFILLER_0_62_289 VGND VGND VPWR VPWR sky130_fd_sc_hd__fill_2
XFILLER_0_30_197 VGND VGND VPWR VPWR sky130_fd_sc_hd__fill_2
Xhold41 instance_1.rdata\[52\] VGND VGND VPWR VPWR net191 sky130_fd_sc_hd__dlygate4sd3_1
Xhold30 instance_1.data\[2\]\[0\] VGND VGND VPWR VPWR net180 sky130_fd_sc_hd__dlygate4sd3_1
Xhold74 instance_1.data\[3\]\[48\] VGND VGND VPWR VPWR net224 sky130_fd_sc_hd__dlygate4sd3_1
Xhold63 instance_1.data\[2\]\[37\] VGND VGND VPWR VPWR net213 sky130_fd_sc_hd__dlygate4sd3_1
XFILLER_0_26_29 VGND VGND VPWR VPWR sky130_fd_sc_hd__decap_6
Xhold52 instance_2.data\[1\]\[56\] VGND VGND VPWR VPWR net202 sky130_fd_sc_hd__dlygate4sd3_1
Xhold85 instance_1.data\[2\]\[52\] VGND VGND VPWR VPWR net235 sky130_fd_sc_hd__dlygate4sd3_1
XTAP_TAPCELL_ROW_74_903 VGND VPWR sky130_fd_sc_hd__tapvpwrvgnd_1
XPHY_EDGE_ROW_11_Left_104 VGND VGND VPWR VPWR sky130_fd_sc_hd__decap_3
Xhold96 instance_1.data\[2\]\[67\] VGND VGND VPWR VPWR net246 sky130_fd_sc_hd__dlygate4sd3_1
XTAP_TAPCELL_ROW_46_638 VGND VPWR sky130_fd_sc_hd__tapvpwrvgnd_1
XFILLER_0_42_17 VGND VGND VPWR VPWR sky130_fd_sc_hd__fill_2
XTAP_TAPCELL_ROW_82_980 VGND VPWR sky130_fd_sc_hd__tapvpwrvgnd_1
XPHY_EDGE_ROW_20_Left_113 VGND VGND VPWR VPWR sky130_fd_sc_hd__decap_3
XANTENNA_5 net123 VGND VGND VPWR VPWR sky130_fd_sc_hd__diode_2
XFILLER_0_21_153 VPWR VGND VPWR VGND sky130_ef_sc_hd__decap_12
X_3240_ _1565_ VGND VGND VPWR VPWR _0378_ sky130_fd_sc_hd__clkbuf_1
X_3171_ net624 _1256_ _1520_ VGND VGND VPWR VPWR _1529_ sky130_fd_sc_hd__mux2_1
XFILLER_0_83_24 VGND VGND VPWR VPWR sky130_fd_sc_hd__decap_4
X_2122_ _0822_ net37 _0806_ VGND VGND VPWR VPWR _0823_ sky130_fd_sc_hd__mux2_1
XTAP_TAPCELL_ROW_1_208 VGND VPWR sky130_fd_sc_hd__tapvpwrvgnd_1
X_2053_ _0778_ VGND VGND VPWR VPWR net122 sky130_fd_sc_hd__buf_1
XFILLER_0_88_153 VPWR VGND VPWR VGND sky130_ef_sc_hd__decap_12
XFILLER_0_16_73 VGND VGND VPWR VPWR sky130_fd_sc_hd__fill_1
XFILLER_0_88_197 VGND VGND VPWR VPWR sky130_fd_sc_hd__decap_8
XFILLER_0_76_359 VGND VGND VPWR VPWR sky130_fd_sc_hd__decap_4
XFILLER_0_76_348 VGND VGND VPWR VPWR sky130_fd_sc_hd__fill_2
XTAP_TAPCELL_ROW_17_362 VGND VPWR sky130_fd_sc_hd__tapvpwrvgnd_1
XFILLER_0_91_329 VGND VGND VPWR VPWR sky130_fd_sc_hd__decap_6
XFILLER_0_17_415 VPWR VGND VPWR VGND sky130_ef_sc_hd__decap_12
X_2955_ _0907_ net720 _1406_ VGND VGND VPWR VPWR _1415_ sky130_fd_sc_hd__mux2_1
X_2886_ net819 _1042_ _1369_ VGND VGND VPWR VPWR _1378_ sky130_fd_sc_hd__mux2_1
X_4625_ clknet_leaf_51_clk _0665_ VGND VGND VPWR VPWR instance_2.data\[3\]\[17\] sky130_fd_sc_hd__dfxtp_1
Xhold500 instance_1.rdata\[43\] VGND VGND VPWR VPWR net650 sky130_fd_sc_hd__dlygate4sd3_1
X_4556_ clknet_leaf_40_clk _0596_ VGND VGND VPWR VPWR instance_1.data\[0\]\[20\] sky130_fd_sc_hd__dfxtp_1
Xhold511 instance_2.data\[0\]\[44\] VGND VGND VPWR VPWR net661 sky130_fd_sc_hd__dlygate4sd3_1
Xhold522 instance_1.data\[3\]\[34\] VGND VGND VPWR VPWR net672 sky130_fd_sc_hd__dlygate4sd3_1
X_3507_ _0815_ net768 _1704_ VGND VGND VPWR VPWR _1706_ sky130_fd_sc_hd__mux2_1
Xhold533 instance_2.data\[0\]\[2\] VGND VGND VPWR VPWR net683 sky130_fd_sc_hd__dlygate4sd3_1
XFILLER_0_12_164 VGND VGND VPWR VPWR sky130_fd_sc_hd__fill_1
Xhold544 instance_2.data\[1\]\[61\] VGND VGND VPWR VPWR net694 sky130_fd_sc_hd__dlygate4sd3_1
Xhold555 instance_1.data\[0\]\[35\] VGND VGND VPWR VPWR net705 sky130_fd_sc_hd__dlygate4sd3_1
XFILLER_0_12_197 VGND VGND VPWR VPWR sky130_fd_sc_hd__decap_4
Xhold577 instance_2.data\[0\]\[9\] VGND VGND VPWR VPWR net727 sky130_fd_sc_hd__dlygate4sd3_1
X_4487_ clknet_leaf_39_clk _0527_ VGND VGND VPWR VPWR instance_2.rdata\[23\] sky130_fd_sc_hd__dfxtp_1
Xhold566 instance_1.data\[0\]\[23\] VGND VGND VPWR VPWR net716 sky130_fd_sc_hd__dlygate4sd3_1
Xhold588 instance_2.data\[0\]\[70\] VGND VGND VPWR VPWR net738 sky130_fd_sc_hd__dlygate4sd3_1
X_3438_ net285 _1195_ _1669_ VGND VGND VPWR VPWR _1670_ sky130_fd_sc_hd__mux2_1
Xhold599 instance_2.data\[2\]\[67\] VGND VGND VPWR VPWR net749 sky130_fd_sc_hd__dlygate4sd3_1
X_3369_ _1633_ VGND VGND VPWR VPWR _0439_ sky130_fd_sc_hd__clkbuf_1
XFILLER_0_79_142 VGND VGND VPWR VPWR sky130_fd_sc_hd__fill_2
XTAP_TAPCELL_ROW_43_608 VGND VPWR sky130_fd_sc_hd__tapvpwrvgnd_1
XFILLER_0_82_318 VGND VGND VPWR VPWR sky130_fd_sc_hd__decap_8
XFILLER_0_82_307 VGND VGND VPWR VPWR sky130_fd_sc_hd__fill_1
XFILLER_0_48_551 VGND VGND VPWR VPWR sky130_fd_sc_hd__fill_1
XTAP_TAPCELL_ROW_51_685 VGND VPWR sky130_fd_sc_hd__tapvpwrvgnd_1
XFILLER_0_16_470 VGND VGND VPWR VPWR sky130_fd_sc_hd__decap_6
XFILLER_0_35_278 VGND VGND VPWR VPWR sky130_fd_sc_hd__fill_2
XFILLER_0_50_215 VPWR VGND VPWR VGND sky130_ef_sc_hd__decap_12
Xoutput86 net86 VGND VGND VPWR VPWR rdata[18] sky130_fd_sc_hd__clkbuf_4
Xoutput97 net97 VGND VGND VPWR VPWR rdata[28] sky130_fd_sc_hd__buf_2
XTAP_TAPCELL_ROW_59_763 VGND VPWR sky130_fd_sc_hd__tapvpwrvgnd_1
XFILLER_0_53_16 VGND VGND VPWR VPWR sky130_fd_sc_hd__decap_4
XFILLER_0_58_315 VGND VGND VPWR VPWR sky130_fd_sc_hd__fill_1
XTAP_TAPCELL_ROW_14_332 VGND VPWR sky130_fd_sc_hd__tapvpwrvgnd_1
X_2740_ _0810_ VGND VGND VPWR VPWR _1300_ sky130_fd_sc_hd__buf_4
X_2671_ net520 _1247_ _1230_ VGND VGND VPWR VPWR _1248_ sky130_fd_sc_hd__mux2_1
XFILLER_0_81_373 VGND VGND VPWR VPWR sky130_fd_sc_hd__fill_1
XFILLER_0_14_418 VGND VGND VPWR VPWR sky130_fd_sc_hd__fill_2
X_4410_ clknet_leaf_43_clk _0450_ VGND VGND VPWR VPWR instance_1.data\[2\]\[18\] sky130_fd_sc_hd__dfxtp_1
XFILLER_0_41_237 VPWR VGND VPWR VGND sky130_ef_sc_hd__decap_12
X_4341_ clknet_leaf_40_clk _0381_ VGND VGND VPWR VPWR instance_1.rdata\[21\] sky130_fd_sc_hd__dfxtp_1
X_4272_ clknet_leaf_41_clk _0312_ VGND VGND VPWR VPWR instance_1.data\[3\]\[24\] sky130_fd_sc_hd__dfxtp_1
X_3223_ net409 _1092_ _1556_ VGND VGND VPWR VPWR _1557_ sky130_fd_sc_hd__mux2_1
X_3154_ _1464_ VGND VGND VPWR VPWR _1520_ sky130_fd_sc_hd__buf_4
X_3085_ net437 _1117_ _1476_ VGND VGND VPWR VPWR _1484_ sky130_fd_sc_hd__mux2_1
X_2105_ net2 VGND VGND VPWR VPWR _0809_ sky130_fd_sc_hd__clkbuf_4
XFILLER_0_89_473 VPWR VGND VPWR VGND sky130_ef_sc_hd__decap_12
XFILLER_0_76_101 VGND VGND VPWR VPWR sky130_fd_sc_hd__fill_1
X_2036_ _0769_ VGND VGND VPWR VPWR net113 sky130_fd_sc_hd__buf_1
X_3987_ clknet_leaf_38_clk _0027_ VGND VGND VPWR VPWR instance_2.data\[2\]\[27\] sky130_fd_sc_hd__dfxtp_1
XFILLER_0_91_137 VPWR VGND VPWR VGND sky130_ef_sc_hd__decap_12
XFILLER_0_17_256 VGND VGND VPWR VPWR sky130_fd_sc_hd__decap_4
X_2938_ _1383_ VGND VGND VPWR VPWR _1406_ sky130_fd_sc_hd__buf_4
XFILLER_0_72_362 VGND VGND VPWR VPWR sky130_fd_sc_hd__fill_2
XFILLER_0_4_150 VGND VGND VPWR VPWR sky130_fd_sc_hd__decap_6
X_2869_ _1302_ VGND VGND VPWR VPWR _1369_ sky130_fd_sc_hd__buf_4
X_4608_ clknet_leaf_62_clk _0648_ VGND VGND VPWR VPWR instance_2.data\[3\]\[0\] sky130_fd_sc_hd__dfxtp_1
Xhold352 instance_1.data\[0\]\[15\] VGND VGND VPWR VPWR net502 sky130_fd_sc_hd__dlygate4sd3_1
XFILLER_0_13_484 VGND VGND VPWR VPWR sky130_fd_sc_hd__decap_4
X_4539_ clknet_leaf_61_clk _0579_ VGND VGND VPWR VPWR instance_1.data\[0\]\[3\] sky130_fd_sc_hd__dfxtp_1
Xhold330 instance_2.data\[0\]\[18\] VGND VGND VPWR VPWR net480 sky130_fd_sc_hd__dlygate4sd3_1
Xhold341 instance_1.data\[0\]\[68\] VGND VGND VPWR VPWR net491 sky130_fd_sc_hd__dlygate4sd3_1
Xhold385 instance_1.data\[1\]\[40\] VGND VGND VPWR VPWR net535 sky130_fd_sc_hd__dlygate4sd3_1
Xhold396 instance_2.data\[0\]\[16\] VGND VGND VPWR VPWR net546 sky130_fd_sc_hd__dlygate4sd3_1
Xhold374 instance_1.rdata\[67\] VGND VGND VPWR VPWR net524 sky130_fd_sc_hd__dlygate4sd3_1
Xhold363 instance_2.data\[2\]\[29\] VGND VGND VPWR VPWR net513 sky130_fd_sc_hd__dlygate4sd3_1
XTAP_TAPCELL_ROW_56_733 VGND VPWR sky130_fd_sc_hd__tapvpwrvgnd_1
XTAP_TAPCELL_ROW_28_468 VGND VPWR sky130_fd_sc_hd__tapvpwrvgnd_1
Xclkbuf_3_6__f_clk clknet_0_clk VGND VGND VPWR VPWR clknet_3_6__leaf_clk sky130_fd_sc_hd__clkbuf_16
XFILLER_0_67_167 VGND VGND VPWR VPWR sky130_fd_sc_hd__fill_1
XTAP_TAPCELL_ROW_11_302 VGND VPWR sky130_fd_sc_hd__tapvpwrvgnd_1
XFILLER_0_31_281 VGND VGND VPWR VPWR sky130_fd_sc_hd__fill_1
XFILLER_0_48_49 VPWR VGND VPWR VGND sky130_ef_sc_hd__decap_12
XFILLER_0_64_37 VGND VGND VPWR VPWR sky130_fd_sc_hd__decap_8
X_3910_ net461 _0975_ _1909_ VGND VGND VPWR VPWR _1918_ sky130_fd_sc_hd__mux2_1
X_3841_ net526 _0863_ _1876_ VGND VGND VPWR VPWR _1882_ sky130_fd_sc_hd__mux2_1
XFILLER_0_39_381 VGND VGND VPWR VPWR sky130_fd_sc_hd__fill_1
X_3772_ net532 _1247_ _1839_ VGND VGND VPWR VPWR _1845_ sky130_fd_sc_hd__mux2_1
XFILLER_0_13_63 VGND VGND VPWR VPWR sky130_fd_sc_hd__fill_1
X_2723_ _1287_ VGND VGND VPWR VPWR _0139_ sky130_fd_sc_hd__clkbuf_1
X_2654_ net350 _1234_ _1230_ VGND VGND VPWR VPWR _1235_ sky130_fd_sc_hd__mux2_1
X_2585_ instance_1.data\[0\]\[36\] instance_1.data\[1\]\[36\] instance_1.data\[2\]\[36\]
+ instance_1.data\[3\]\[36\] _1177_ _1156_ VGND VGND VPWR VPWR _1181_ sky130_fd_sc_hd__mux4_1
XFILLER_0_10_421 VGND VGND VPWR VPWR sky130_fd_sc_hd__decap_4
X_4324_ clknet_leaf_58_clk _0364_ VGND VGND VPWR VPWR instance_1.rdata\[4\] sky130_fd_sc_hd__dfxtp_1
XFILLER_0_10_498 VPWR VGND VPWR VGND sky130_ef_sc_hd__decap_12
X_4255_ clknet_leaf_57_clk _0295_ VGND VGND VPWR VPWR instance_1.data\[3\]\[7\] sky130_fd_sc_hd__dfxtp_1
X_4186_ clknet_leaf_49_clk _0226_ VGND VGND VPWR VPWR instance_2.data\[0\]\[10\] sky130_fd_sc_hd__dfxtp_1
X_3206_ net289 _1066_ _1545_ VGND VGND VPWR VPWR _1548_ sky130_fd_sc_hd__mux2_1
XFILLER_0_38_93 VGND VGND VPWR VPWR sky130_fd_sc_hd__decap_6
X_3137_ _1511_ VGND VGND VPWR VPWR _0329_ sky130_fd_sc_hd__clkbuf_1
XFILLER_0_77_410 VGND VGND VPWR VPWR sky130_fd_sc_hd__fill_1
X_3068_ net553 _1090_ _1465_ VGND VGND VPWR VPWR _1475_ sky130_fd_sc_hd__mux2_1
XTAP_TAPCELL_ROW_53_703 VGND VPWR sky130_fd_sc_hd__tapvpwrvgnd_1
X_2019_ _0760_ VGND VGND VPWR VPWR net104 sky130_fd_sc_hd__clkbuf_1
XTAP_TAPCELL_ROW_25_438 VGND VPWR sky130_fd_sc_hd__tapvpwrvgnd_1
XFILLER_0_49_134 VPWR VGND VPWR VGND sky130_ef_sc_hd__decap_12
XFILLER_0_92_457 VGND VGND VPWR VPWR sky130_fd_sc_hd__fill_1
XTAP_TAPCELL_ROW_61_780 VGND VPWR sky130_fd_sc_hd__tapvpwrvgnd_1
Xhold160 instance_1.data\[0\]\[39\] VGND VGND VPWR VPWR net310 sky130_fd_sc_hd__dlygate4sd3_1
Xhold171 instance_2.data\[3\]\[24\] VGND VGND VPWR VPWR net321 sky130_fd_sc_hd__dlygate4sd3_1
Xhold182 instance_1.data\[1\]\[56\] VGND VGND VPWR VPWR net332 sky130_fd_sc_hd__dlygate4sd3_1
Xhold193 instance_2.data\[2\]\[40\] VGND VGND VPWR VPWR net343 sky130_fd_sc_hd__dlygate4sd3_1
XFILLER_0_68_421 VGND VGND VPWR VPWR sky130_fd_sc_hd__fill_1
XFILLER_0_83_446 VGND VGND VPWR VPWR sky130_fd_sc_hd__fill_2
XFILLER_0_83_479 VGND VGND VPWR VPWR sky130_fd_sc_hd__decap_3
XFILLER_0_11_229 VGND VGND VPWR VPWR sky130_fd_sc_hd__fill_1
X_2370_ _1014_ VGND VGND VPWR VPWR _0059_ sky130_fd_sc_hd__clkbuf_1
XFILLER_0_75_14 VGND VGND VPWR VPWR sky130_fd_sc_hd__fill_1
X_4040_ clknet_leaf_56_clk _0080_ VGND VGND VPWR VPWR instance_1.data\[1\]\[8\] sky130_fd_sc_hd__dfxtp_1
XTAP_TAPCELL_ROW_67_839 VGND VPWR sky130_fd_sc_hd__tapvpwrvgnd_1
XFILLER_0_91_57 VPWR VGND VPWR VGND sky130_ef_sc_hd__decap_12
XFILLER_0_86_251 VGND VGND VPWR VPWR sky130_fd_sc_hd__fill_1
XTAP_TAPCELL_ROW_22_408 VGND VPWR sky130_fd_sc_hd__tapvpwrvgnd_1
XFILLER_0_15_502 VGND VGND VPWR VPWR sky130_fd_sc_hd__fill_2
X_3824_ net595 _0836_ _1865_ VGND VGND VPWR VPWR _1873_ sky130_fd_sc_hd__mux2_1
X_3755_ net558 _1219_ _1828_ VGND VGND VPWR VPWR _1836_ sky130_fd_sc_hd__mux2_1
XFILLER_0_40_50 VGND VGND VPWR VPWR sky130_fd_sc_hd__fill_2
X_3686_ net300 _1107_ _1795_ VGND VGND VPWR VPWR _1800_ sky130_fd_sc_hd__mux2_1
X_2706_ net836 _1274_ _1264_ VGND VGND VPWR VPWR _1275_ sky130_fd_sc_hd__mux2_1
XTAP_TAPCELL_ROW_30_485 VGND VPWR sky130_fd_sc_hd__tapvpwrvgnd_1
X_2637_ instance_1.data\[0\]\[48\] instance_1.data\[1\]\[48\] instance_1.data\[2\]\[48\]
+ instance_1.data\[3\]\[48\] _1211_ _1190_ VGND VGND VPWR VPWR _1221_ sky130_fd_sc_hd__mux4_1
XPHY_EDGE_ROW_12_Right_12 VGND VGND VPWR VPWR sky130_fd_sc_hd__decap_3
XFILLER_0_42_387 VGND VGND VPWR VPWR sky130_fd_sc_hd__decap_3
XFILLER_0_10_262 VGND VGND VPWR VPWR sky130_fd_sc_hd__fill_1
XFILLER_0_10_251 VGND VGND VPWR VPWR sky130_fd_sc_hd__fill_1
X_2568_ instance_1.data\[0\]\[32\] instance_1.data\[1\]\[32\] instance_1.data\[2\]\[32\]
+ instance_1.data\[3\]\[32\] _1143_ _1156_ VGND VGND VPWR VPWR _1168_ sky130_fd_sc_hd__mux4_1
X_4307_ clknet_leaf_14_clk _0347_ VGND VGND VPWR VPWR instance_1.data\[3\]\[59\] sky130_fd_sc_hd__dfxtp_1
X_2499_ net154 _1114_ _1094_ VGND VGND VPWR VPWR _1115_ sky130_fd_sc_hd__mux2_1
XFILLER_0_49_92 VGND VGND VPWR VPWR sky130_fd_sc_hd__decap_8
X_4238_ clknet_leaf_10_clk _0278_ VGND VGND VPWR VPWR instance_2.data\[0\]\[62\] sky130_fd_sc_hd__dfxtp_1
X_4169_ clknet_leaf_9_clk _0209_ VGND VGND VPWR VPWR instance_2.data\[1\]\[65\] sky130_fd_sc_hd__dfxtp_1
XPHY_EDGE_ROW_21_Right_21 VGND VGND VPWR VPWR sky130_fd_sc_hd__decap_3
XTAP_TAPCELL_ROW_38_563 VGND VPWR sky130_fd_sc_hd__tapvpwrvgnd_1