*SPEF "ieee 1481-1999"
*DESIGN "dff_full_adder"
*DATE "11:11:11 Fri 11 11, 1111"
*VENDOR "OpenRCX"
*PROGRAM "Parallel Extraction"
*VERSION "1.0"
*DESIGN_FLOW "NAME_SCOPE LOCAL" "PIN_CAP NONE"
*DIVIDER /
*DELIMITER :
*BUS_DELIMITER []
*T_UNIT 1 NS
*C_UNIT 1 PF
*R_UNIT 1 OHM
*L_UNIT 1 HENRY

*NAME_MAP
*3 a
*4 b
*5 c
*6 cin
*7 cout
*8 d
*9 e
*10 sum
*11 _0_
*12 _1_
*13 net1
*14 net2
*15 net3
*16 net4
*17 net5
*18 net6
*19 net7
*20 net8
*21 ANTENNA_1
*22 ANTENNA_2
*23 FILLER_0_0_1005
*24 FILLER_0_0_1009
*25 FILLER_0_0_1021
*26 FILLER_0_0_1033
*27 FILLER_0_0_1037
*28 FILLER_0_0_1049
*29 FILLER_0_0_1061
*30 FILLER_0_0_1065
*31 FILLER_0_0_1077
*32 FILLER_0_0_1089
*33 FILLER_0_0_109
*34 FILLER_0_0_1093
*35 FILLER_0_0_113
*36 FILLER_0_0_125
*37 FILLER_0_0_137
*38 FILLER_0_0_141
*39 FILLER_0_0_15
*40 FILLER_0_0_153
*41 FILLER_0_0_165
*42 FILLER_0_0_169
*43 FILLER_0_0_181
*44 FILLER_0_0_193
*45 FILLER_0_0_197
*46 FILLER_0_0_209
*47 FILLER_0_0_221
*48 FILLER_0_0_225
*49 FILLER_0_0_237
*50 FILLER_0_0_249
*51 FILLER_0_0_253
*52 FILLER_0_0_265
*53 FILLER_0_0_27
*54 FILLER_0_0_277
*55 FILLER_0_0_281
*56 FILLER_0_0_29
*57 FILLER_0_0_293
*58 FILLER_0_0_3
*59 FILLER_0_0_305
*60 FILLER_0_0_309
*61 FILLER_0_0_321
*62 FILLER_0_0_333
*63 FILLER_0_0_337
*64 FILLER_0_0_349
*65 FILLER_0_0_361
*66 FILLER_0_0_365
*67 FILLER_0_0_377
*68 FILLER_0_0_389
*69 FILLER_0_0_393
*70 FILLER_0_0_405
*71 FILLER_0_0_41
*72 FILLER_0_0_417
*73 FILLER_0_0_421
*74 FILLER_0_0_433
*75 FILLER_0_0_445
*76 FILLER_0_0_449
*77 FILLER_0_0_461
*78 FILLER_0_0_473
*79 FILLER_0_0_477
*80 FILLER_0_0_489
*81 FILLER_0_0_501
*82 FILLER_0_0_505
*83 FILLER_0_0_517
*84 FILLER_0_0_525
*85 FILLER_0_0_53
*86 FILLER_0_0_533
*87 FILLER_0_0_538
*88 FILLER_0_0_546
*89 FILLER_0_0_553
*90 FILLER_0_0_561
*91 FILLER_0_0_565
*92 FILLER_0_0_568
*93 FILLER_0_0_57
*94 FILLER_0_0_576
*95 FILLER_0_0_583
*96 FILLER_0_0_587
*97 FILLER_0_0_589
*98 FILLER_0_0_601
*99 FILLER_0_0_613
*100 FILLER_0_0_617
*101 FILLER_0_0_629
*102 FILLER_0_0_641
*103 FILLER_0_0_645
*104 FILLER_0_0_657
*105 FILLER_0_0_669
*106 FILLER_0_0_673
*107 FILLER_0_0_685
*108 FILLER_0_0_69
*109 FILLER_0_0_697
*110 FILLER_0_0_701
*111 FILLER_0_0_713
*112 FILLER_0_0_725
*113 FILLER_0_0_729
*114 FILLER_0_0_741
*115 FILLER_0_0_753
*116 FILLER_0_0_757
*117 FILLER_0_0_769
*118 FILLER_0_0_781
*119 FILLER_0_0_785
*120 FILLER_0_0_797
*121 FILLER_0_0_809
*122 FILLER_0_0_81
*123 FILLER_0_0_813
*124 FILLER_0_0_825
*125 FILLER_0_0_837
*126 FILLER_0_0_841
*127 FILLER_0_0_85
*128 FILLER_0_0_853
*129 FILLER_0_0_865
*130 FILLER_0_0_869
*131 FILLER_0_0_881
*132 FILLER_0_0_893
*133 FILLER_0_0_897
*134 FILLER_0_0_909
*135 FILLER_0_0_921
*136 FILLER_0_0_925
*137 FILLER_0_0_937
*138 FILLER_0_0_949
*139 FILLER_0_0_953
*140 FILLER_0_0_965
*141 FILLER_0_0_97
*142 FILLER_0_0_977
*143 FILLER_0_0_981
*144 FILLER_0_0_993
*145 FILLER_0_10_1005
*146 FILLER_0_10_1017
*147 FILLER_0_10_1029
*148 FILLER_0_10_1035
*149 FILLER_0_10_1037
*150 FILLER_0_10_1049
*151 FILLER_0_10_1061
*152 FILLER_0_10_1073
*153 FILLER_0_10_1085
*154 FILLER_0_10_109
*155 FILLER_0_10_1091
*156 FILLER_0_10_1093
*157 FILLER_0_10_121
*158 FILLER_0_10_133
*159 FILLER_0_10_139
*160 FILLER_0_10_141
*161 FILLER_0_10_15
*162 FILLER_0_10_153
*163 FILLER_0_10_165
*164 FILLER_0_10_177
*165 FILLER_0_10_189
*166 FILLER_0_10_195
*167 FILLER_0_10_197
*168 FILLER_0_10_209
*169 FILLER_0_10_221
*170 FILLER_0_10_233
*171 FILLER_0_10_245
*172 FILLER_0_10_251
*173 FILLER_0_10_253
*174 FILLER_0_10_265
*175 FILLER_0_10_27
*176 FILLER_0_10_277
*177 FILLER_0_10_289
*178 FILLER_0_10_29
*179 FILLER_0_10_3
*180 FILLER_0_10_301
*181 FILLER_0_10_307
*182 FILLER_0_10_309
*183 FILLER_0_10_321
*184 FILLER_0_10_333
*185 FILLER_0_10_345
*186 FILLER_0_10_357
*187 FILLER_0_10_363
*188 FILLER_0_10_365
*189 FILLER_0_10_377
*190 FILLER_0_10_389
*191 FILLER_0_10_401
*192 FILLER_0_10_41
*193 FILLER_0_10_413
*194 FILLER_0_10_419
*195 FILLER_0_10_421
*196 FILLER_0_10_433
*197 FILLER_0_10_445
*198 FILLER_0_10_457
*199 FILLER_0_10_469
*200 FILLER_0_10_475
*201 FILLER_0_10_477
*202 FILLER_0_10_489
*203 FILLER_0_10_501
*204 FILLER_0_10_513
*205 FILLER_0_10_525
*206 FILLER_0_10_53
*207 FILLER_0_10_531
*208 FILLER_0_10_533
*209 FILLER_0_10_545
*210 FILLER_0_10_557
*211 FILLER_0_10_569
*212 FILLER_0_10_581
*213 FILLER_0_10_587
*214 FILLER_0_10_589
*215 FILLER_0_10_601
*216 FILLER_0_10_613
*217 FILLER_0_10_625
*218 FILLER_0_10_637
*219 FILLER_0_10_643
*220 FILLER_0_10_645
*221 FILLER_0_10_65
*222 FILLER_0_10_657
*223 FILLER_0_10_669
*224 FILLER_0_10_681
*225 FILLER_0_10_693
*226 FILLER_0_10_699
*227 FILLER_0_10_701
*228 FILLER_0_10_713
*229 FILLER_0_10_725
*230 FILLER_0_10_737
*231 FILLER_0_10_749
*232 FILLER_0_10_755
*233 FILLER_0_10_757
*234 FILLER_0_10_769
*235 FILLER_0_10_77
*236 FILLER_0_10_781
*237 FILLER_0_10_793
*238 FILLER_0_10_805
*239 FILLER_0_10_811
*240 FILLER_0_10_813
*241 FILLER_0_10_825
*242 FILLER_0_10_83
*243 FILLER_0_10_837
*244 FILLER_0_10_849
*245 FILLER_0_10_85
*246 FILLER_0_10_861
*247 FILLER_0_10_867
*248 FILLER_0_10_869
*249 FILLER_0_10_881
*250 FILLER_0_10_893
*251 FILLER_0_10_905
*252 FILLER_0_10_917
*253 FILLER_0_10_923
*254 FILLER_0_10_925
*255 FILLER_0_10_937
*256 FILLER_0_10_949
*257 FILLER_0_10_961
*258 FILLER_0_10_97
*259 FILLER_0_10_973
*260 FILLER_0_10_979
*261 FILLER_0_10_981
*262 FILLER_0_10_993
*263 FILLER_0_11_1001
*264 FILLER_0_11_1007
*265 FILLER_0_11_1009
*266 FILLER_0_11_1021
*267 FILLER_0_11_1033
*268 FILLER_0_11_1045
*269 FILLER_0_11_105
*270 FILLER_0_11_1057
*271 FILLER_0_11_1063
*272 FILLER_0_11_1065
*273 FILLER_0_11_1077
*274 FILLER_0_11_1089
*275 FILLER_0_11_111
*276 FILLER_0_11_113
*277 FILLER_0_11_125
*278 FILLER_0_11_137
*279 FILLER_0_11_149
*280 FILLER_0_11_15
*281 FILLER_0_11_161
*282 FILLER_0_11_167
*283 FILLER_0_11_169
*284 FILLER_0_11_181
*285 FILLER_0_11_193
*286 FILLER_0_11_205
*287 FILLER_0_11_217
*288 FILLER_0_11_223
*289 FILLER_0_11_225
*290 FILLER_0_11_237
*291 FILLER_0_11_249
*292 FILLER_0_11_261
*293 FILLER_0_11_27
*294 FILLER_0_11_273
*295 FILLER_0_11_279
*296 FILLER_0_11_281
*297 FILLER_0_11_293
*298 FILLER_0_11_3
*299 FILLER_0_11_305
*300 FILLER_0_11_317
*301 FILLER_0_11_329
*302 FILLER_0_11_335
*303 FILLER_0_11_337
*304 FILLER_0_11_349
*305 FILLER_0_11_361
*306 FILLER_0_11_373
*307 FILLER_0_11_385
*308 FILLER_0_11_39
*309 FILLER_0_11_391
*310 FILLER_0_11_393
*311 FILLER_0_11_405
*312 FILLER_0_11_417
*313 FILLER_0_11_429
*314 FILLER_0_11_441
*315 FILLER_0_11_447
*316 FILLER_0_11_449
*317 FILLER_0_11_461
*318 FILLER_0_11_473
*319 FILLER_0_11_485
*320 FILLER_0_11_497
*321 FILLER_0_11_503
*322 FILLER_0_11_505
*323 FILLER_0_11_51
*324 FILLER_0_11_517
*325 FILLER_0_11_529
*326 FILLER_0_11_541
*327 FILLER_0_11_55
*328 FILLER_0_11_553
*329 FILLER_0_11_559
*330 FILLER_0_11_561
*331 FILLER_0_11_57
*332 FILLER_0_11_573
*333 FILLER_0_11_585
*334 FILLER_0_11_597
*335 FILLER_0_11_609
*336 FILLER_0_11_615
*337 FILLER_0_11_617
*338 FILLER_0_11_629
*339 FILLER_0_11_641
*340 FILLER_0_11_653
*341 FILLER_0_11_665
*342 FILLER_0_11_671
*343 FILLER_0_11_673
*344 FILLER_0_11_685
*345 FILLER_0_11_69
*346 FILLER_0_11_697
*347 FILLER_0_11_709
*348 FILLER_0_11_721
*349 FILLER_0_11_727
*350 FILLER_0_11_729
*351 FILLER_0_11_741
*352 FILLER_0_11_753
*353 FILLER_0_11_765
*354 FILLER_0_11_777
*355 FILLER_0_11_783
*356 FILLER_0_11_785
*357 FILLER_0_11_797
*358 FILLER_0_11_809
*359 FILLER_0_11_81
*360 FILLER_0_11_821
*361 FILLER_0_11_833
*362 FILLER_0_11_839
*363 FILLER_0_11_841
*364 FILLER_0_11_853
*365 FILLER_0_11_865
*366 FILLER_0_11_877
*367 FILLER_0_11_889
*368 FILLER_0_11_895
*369 FILLER_0_11_897
*370 FILLER_0_11_909
*371 FILLER_0_11_921
*372 FILLER_0_11_93
*373 FILLER_0_11_933
*374 FILLER_0_11_945
*375 FILLER_0_11_951
*376 FILLER_0_11_953
*377 FILLER_0_11_965
*378 FILLER_0_11_977
*379 FILLER_0_11_989
*380 FILLER_0_12_1005
*381 FILLER_0_12_1017
*382 FILLER_0_12_1029
*383 FILLER_0_12_1035
*384 FILLER_0_12_1037
*385 FILLER_0_12_1049
*386 FILLER_0_12_1061
*387 FILLER_0_12_1073
*388 FILLER_0_12_1085
*389 FILLER_0_12_109
*390 FILLER_0_12_1091
*391 FILLER_0_12_1093
*392 FILLER_0_12_121
*393 FILLER_0_12_133
*394 FILLER_0_12_139
*395 FILLER_0_12_141
*396 FILLER_0_12_15
*397 FILLER_0_12_153
*398 FILLER_0_12_165
*399 FILLER_0_12_177
*400 FILLER_0_12_189
*401 FILLER_0_12_195
*402 FILLER_0_12_197
*403 FILLER_0_12_209
*404 FILLER_0_12_221
*405 FILLER_0_12_233
*406 FILLER_0_12_245
*407 FILLER_0_12_251
*408 FILLER_0_12_253
*409 FILLER_0_12_265
*410 FILLER_0_12_27
*411 FILLER_0_12_277
*412 FILLER_0_12_289
*413 FILLER_0_12_29
*414 FILLER_0_12_3
*415 FILLER_0_12_301
*416 FILLER_0_12_307
*417 FILLER_0_12_309
*418 FILLER_0_12_321
*419 FILLER_0_12_333
*420 FILLER_0_12_345
*421 FILLER_0_12_357
*422 FILLER_0_12_363
*423 FILLER_0_12_365
*424 FILLER_0_12_377
*425 FILLER_0_12_389
*426 FILLER_0_12_401
*427 FILLER_0_12_41
*428 FILLER_0_12_413
*429 FILLER_0_12_419
*430 FILLER_0_12_421
*431 FILLER_0_12_433
*432 FILLER_0_12_445
*433 FILLER_0_12_457
*434 FILLER_0_12_469
*435 FILLER_0_12_475
*436 FILLER_0_12_477
*437 FILLER_0_12_489
*438 FILLER_0_12_501
*439 FILLER_0_12_513
*440 FILLER_0_12_525
*441 FILLER_0_12_53
*442 FILLER_0_12_531
*443 FILLER_0_12_533
*444 FILLER_0_12_545
*445 FILLER_0_12_557
*446 FILLER_0_12_569
*447 FILLER_0_12_581
*448 FILLER_0_12_587
*449 FILLER_0_12_589
*450 FILLER_0_12_601
*451 FILLER_0_12_613
*452 FILLER_0_12_625
*453 FILLER_0_12_637
*454 FILLER_0_12_643
*455 FILLER_0_12_645
*456 FILLER_0_12_65
*457 FILLER_0_12_657
*458 FILLER_0_12_669
*459 FILLER_0_12_681
*460 FILLER_0_12_693
*461 FILLER_0_12_699
*462 FILLER_0_12_701
*463 FILLER_0_12_713
*464 FILLER_0_12_725
*465 FILLER_0_12_737
*466 FILLER_0_12_749
*467 FILLER_0_12_755
*468 FILLER_0_12_757
*469 FILLER_0_12_769
*470 FILLER_0_12_77
*471 FILLER_0_12_781
*472 FILLER_0_12_793
*473 FILLER_0_12_805
*474 FILLER_0_12_811
*475 FILLER_0_12_813
*476 FILLER_0_12_825
*477 FILLER_0_12_83
*478 FILLER_0_12_837
*479 FILLER_0_12_849
*480 FILLER_0_12_85
*481 FILLER_0_12_861
*482 FILLER_0_12_867
*483 FILLER_0_12_869
*484 FILLER_0_12_881
*485 FILLER_0_12_893
*486 FILLER_0_12_905
*487 FILLER_0_12_917
*488 FILLER_0_12_923
*489 FILLER_0_12_925
*490 FILLER_0_12_937
*491 FILLER_0_12_949
*492 FILLER_0_12_961
*493 FILLER_0_12_97
*494 FILLER_0_12_973
*495 FILLER_0_12_979
*496 FILLER_0_12_981
*497 FILLER_0_12_993
*498 FILLER_0_13_1001
*499 FILLER_0_13_1007
*500 FILLER_0_13_1009
*501 FILLER_0_13_1021
*502 FILLER_0_13_1033
*503 FILLER_0_13_1045
*504 FILLER_0_13_105
*505 FILLER_0_13_1057
*506 FILLER_0_13_1063
*507 FILLER_0_13_1065
*508 FILLER_0_13_1077
*509 FILLER_0_13_1089
*510 FILLER_0_13_111
*511 FILLER_0_13_113
*512 FILLER_0_13_125
*513 FILLER_0_13_137
*514 FILLER_0_13_149
*515 FILLER_0_13_15
*516 FILLER_0_13_161
*517 FILLER_0_13_167
*518 FILLER_0_13_169
*519 FILLER_0_13_181
*520 FILLER_0_13_193
*521 FILLER_0_13_205
*522 FILLER_0_13_217
*523 FILLER_0_13_223
*524 FILLER_0_13_225
*525 FILLER_0_13_237
*526 FILLER_0_13_249
*527 FILLER_0_13_261
*528 FILLER_0_13_27
*529 FILLER_0_13_273
*530 FILLER_0_13_279
*531 FILLER_0_13_281
*532 FILLER_0_13_293
*533 FILLER_0_13_3
*534 FILLER_0_13_305
*535 FILLER_0_13_317
*536 FILLER_0_13_329
*537 FILLER_0_13_335
*538 FILLER_0_13_337
*539 FILLER_0_13_349
*540 FILLER_0_13_361
*541 FILLER_0_13_373
*542 FILLER_0_13_385
*543 FILLER_0_13_39
*544 FILLER_0_13_391
*545 FILLER_0_13_393
*546 FILLER_0_13_405
*547 FILLER_0_13_417
*548 FILLER_0_13_429
*549 FILLER_0_13_441
*550 FILLER_0_13_447
*551 FILLER_0_13_449
*552 FILLER_0_13_461
*553 FILLER_0_13_473
*554 FILLER_0_13_485
*555 FILLER_0_13_497
*556 FILLER_0_13_503
*557 FILLER_0_13_505
*558 FILLER_0_13_51
*559 FILLER_0_13_517
*560 FILLER_0_13_529
*561 FILLER_0_13_541
*562 FILLER_0_13_55
*563 FILLER_0_13_553
*564 FILLER_0_13_559
*565 FILLER_0_13_561
*566 FILLER_0_13_57
*567 FILLER_0_13_573
*568 FILLER_0_13_585
*569 FILLER_0_13_597
*570 FILLER_0_13_609
*571 FILLER_0_13_615
*572 FILLER_0_13_617
*573 FILLER_0_13_629
*574 FILLER_0_13_641
*575 FILLER_0_13_653
*576 FILLER_0_13_665
*577 FILLER_0_13_671
*578 FILLER_0_13_673
*579 FILLER_0_13_685
*580 FILLER_0_13_69
*581 FILLER_0_13_697
*582 FILLER_0_13_709
*583 FILLER_0_13_721
*584 FILLER_0_13_727
*585 FILLER_0_13_729
*586 FILLER_0_13_741
*587 FILLER_0_13_753
*588 FILLER_0_13_765
*589 FILLER_0_13_777
*590 FILLER_0_13_783
*591 FILLER_0_13_785
*592 FILLER_0_13_797
*593 FILLER_0_13_809
*594 FILLER_0_13_81
*595 FILLER_0_13_821
*596 FILLER_0_13_833
*597 FILLER_0_13_839
*598 FILLER_0_13_841
*599 FILLER_0_13_853
*600 FILLER_0_13_865
*601 FILLER_0_13_877
*602 FILLER_0_13_889
*603 FILLER_0_13_895
*604 FILLER_0_13_897
*605 FILLER_0_13_909
*606 FILLER_0_13_921
*607 FILLER_0_13_93
*608 FILLER_0_13_933
*609 FILLER_0_13_945
*610 FILLER_0_13_951
*611 FILLER_0_13_953
*612 FILLER_0_13_965
*613 FILLER_0_13_977
*614 FILLER_0_13_989
*615 FILLER_0_14_1005
*616 FILLER_0_14_1017
*617 FILLER_0_14_1029
*618 FILLER_0_14_1035
*619 FILLER_0_14_1037
*620 FILLER_0_14_1049
*621 FILLER_0_14_1061
*622 FILLER_0_14_1073
*623 FILLER_0_14_1085
*624 FILLER_0_14_109
*625 FILLER_0_14_1091
*626 FILLER_0_14_1093
*627 FILLER_0_14_121
*628 FILLER_0_14_133
*629 FILLER_0_14_139
*630 FILLER_0_14_141
*631 FILLER_0_14_15
*632 FILLER_0_14_153
*633 FILLER_0_14_165
*634 FILLER_0_14_177
*635 FILLER_0_14_189
*636 FILLER_0_14_195
*637 FILLER_0_14_197
*638 FILLER_0_14_209
*639 FILLER_0_14_221
*640 FILLER_0_14_233
*641 FILLER_0_14_245
*642 FILLER_0_14_251
*643 FILLER_0_14_253
*644 FILLER_0_14_265
*645 FILLER_0_14_27
*646 FILLER_0_14_277
*647 FILLER_0_14_289
*648 FILLER_0_14_29
*649 FILLER_0_14_3
*650 FILLER_0_14_301
*651 FILLER_0_14_307
*652 FILLER_0_14_309
*653 FILLER_0_14_321
*654 FILLER_0_14_333
*655 FILLER_0_14_345
*656 FILLER_0_14_357
*657 FILLER_0_14_363
*658 FILLER_0_14_365
*659 FILLER_0_14_377
*660 FILLER_0_14_389
*661 FILLER_0_14_401
*662 FILLER_0_14_41
*663 FILLER_0_14_413
*664 FILLER_0_14_419
*665 FILLER_0_14_421
*666 FILLER_0_14_433
*667 FILLER_0_14_445
*668 FILLER_0_14_457
*669 FILLER_0_14_469
*670 FILLER_0_14_475
*671 FILLER_0_14_477
*672 FILLER_0_14_489
*673 FILLER_0_14_501
*674 FILLER_0_14_513
*675 FILLER_0_14_525
*676 FILLER_0_14_53
*677 FILLER_0_14_531
*678 FILLER_0_14_533
*679 FILLER_0_14_545
*680 FILLER_0_14_557
*681 FILLER_0_14_569
*682 FILLER_0_14_581
*683 FILLER_0_14_587
*684 FILLER_0_14_589
*685 FILLER_0_14_601
*686 FILLER_0_14_613
*687 FILLER_0_14_625
*688 FILLER_0_14_637
*689 FILLER_0_14_643
*690 FILLER_0_14_645
*691 FILLER_0_14_65
*692 FILLER_0_14_657
*693 FILLER_0_14_669
*694 FILLER_0_14_681
*695 FILLER_0_14_693
*696 FILLER_0_14_699
*697 FILLER_0_14_701
*698 FILLER_0_14_713
*699 FILLER_0_14_725
*700 FILLER_0_14_737
*701 FILLER_0_14_749
*702 FILLER_0_14_755
*703 FILLER_0_14_757
*704 FILLER_0_14_769
*705 FILLER_0_14_77
*706 FILLER_0_14_781
*707 FILLER_0_14_793
*708 FILLER_0_14_805
*709 FILLER_0_14_811
*710 FILLER_0_14_813
*711 FILLER_0_14_825
*712 FILLER_0_14_83
*713 FILLER_0_14_837
*714 FILLER_0_14_849
*715 FILLER_0_14_85
*716 FILLER_0_14_861
*717 FILLER_0_14_867
*718 FILLER_0_14_869
*719 FILLER_0_14_881
*720 FILLER_0_14_893
*721 FILLER_0_14_905
*722 FILLER_0_14_917
*723 FILLER_0_14_923
*724 FILLER_0_14_925
*725 FILLER_0_14_937
*726 FILLER_0_14_949
*727 FILLER_0_14_961
*728 FILLER_0_14_97
*729 FILLER_0_14_973
*730 FILLER_0_14_979
*731 FILLER_0_14_981
*732 FILLER_0_14_993
*733 FILLER_0_15_1001
*734 FILLER_0_15_1007
*735 FILLER_0_15_1009
*736 FILLER_0_15_1021
*737 FILLER_0_15_1033
*738 FILLER_0_15_1045
*739 FILLER_0_15_105
*740 FILLER_0_15_1057
*741 FILLER_0_15_1063
*742 FILLER_0_15_1065
*743 FILLER_0_15_1077
*744 FILLER_0_15_1089
*745 FILLER_0_15_111
*746 FILLER_0_15_113
*747 FILLER_0_15_125
*748 FILLER_0_15_137
*749 FILLER_0_15_149
*750 FILLER_0_15_15
*751 FILLER_0_15_161
*752 FILLER_0_15_167
*753 FILLER_0_15_169
*754 FILLER_0_15_181
*755 FILLER_0_15_193
*756 FILLER_0_15_205
*757 FILLER_0_15_217
*758 FILLER_0_15_223
*759 FILLER_0_15_225
*760 FILLER_0_15_237
*761 FILLER_0_15_249
*762 FILLER_0_15_261
*763 FILLER_0_15_27
*764 FILLER_0_15_273
*765 FILLER_0_15_279
*766 FILLER_0_15_281
*767 FILLER_0_15_293
*768 FILLER_0_15_3
*769 FILLER_0_15_305
*770 FILLER_0_15_317
*771 FILLER_0_15_329
*772 FILLER_0_15_335
*773 FILLER_0_15_337
*774 FILLER_0_15_349
*775 FILLER_0_15_361
*776 FILLER_0_15_373
*777 FILLER_0_15_385
*778 FILLER_0_15_39
*779 FILLER_0_15_391
*780 FILLER_0_15_393
*781 FILLER_0_15_405
*782 FILLER_0_15_417
*783 FILLER_0_15_429
*784 FILLER_0_15_441
*785 FILLER_0_15_447
*786 FILLER_0_15_449
*787 FILLER_0_15_461
*788 FILLER_0_15_473
*789 FILLER_0_15_485
*790 FILLER_0_15_497
*791 FILLER_0_15_503
*792 FILLER_0_15_505
*793 FILLER_0_15_51
*794 FILLER_0_15_517
*795 FILLER_0_15_529
*796 FILLER_0_15_541
*797 FILLER_0_15_55
*798 FILLER_0_15_553
*799 FILLER_0_15_559
*800 FILLER_0_15_561
*801 FILLER_0_15_57
*802 FILLER_0_15_573
*803 FILLER_0_15_585
*804 FILLER_0_15_597
*805 FILLER_0_15_609
*806 FILLER_0_15_615
*807 FILLER_0_15_617
*808 FILLER_0_15_629
*809 FILLER_0_15_641
*810 FILLER_0_15_653
*811 FILLER_0_15_665
*812 FILLER_0_15_671
*813 FILLER_0_15_673
*814 FILLER_0_15_685
*815 FILLER_0_15_69
*816 FILLER_0_15_697
*817 FILLER_0_15_709
*818 FILLER_0_15_721
*819 FILLER_0_15_727
*820 FILLER_0_15_729
*821 FILLER_0_15_741
*822 FILLER_0_15_753
*823 FILLER_0_15_765
*824 FILLER_0_15_777
*825 FILLER_0_15_783
*826 FILLER_0_15_785
*827 FILLER_0_15_797
*828 FILLER_0_15_809
*829 FILLER_0_15_81
*830 FILLER_0_15_821
*831 FILLER_0_15_833
*832 FILLER_0_15_839
*833 FILLER_0_15_841
*834 FILLER_0_15_853
*835 FILLER_0_15_865
*836 FILLER_0_15_877
*837 FILLER_0_15_889
*838 FILLER_0_15_895
*839 FILLER_0_15_897
*840 FILLER_0_15_909
*841 FILLER_0_15_921
*842 FILLER_0_15_93
*843 FILLER_0_15_933
*844 FILLER_0_15_945
*845 FILLER_0_15_951
*846 FILLER_0_15_953
*847 FILLER_0_15_965
*848 FILLER_0_15_977
*849 FILLER_0_15_989
*850 FILLER_0_16_1005
*851 FILLER_0_16_1017
*852 FILLER_0_16_1029
*853 FILLER_0_16_1035
*854 FILLER_0_16_1037
*855 FILLER_0_16_1049
*856 FILLER_0_16_1061
*857 FILLER_0_16_1073
*858 FILLER_0_16_1085
*859 FILLER_0_16_109
*860 FILLER_0_16_1091
*861 FILLER_0_16_1093
*862 FILLER_0_16_121
*863 FILLER_0_16_133
*864 FILLER_0_16_139
*865 FILLER_0_16_141
*866 FILLER_0_16_15
*867 FILLER_0_16_153
*868 FILLER_0_16_165
*869 FILLER_0_16_177
*870 FILLER_0_16_189
*871 FILLER_0_16_195
*872 FILLER_0_16_197
*873 FILLER_0_16_209
*874 FILLER_0_16_221
*875 FILLER_0_16_233
*876 FILLER_0_16_245
*877 FILLER_0_16_251
*878 FILLER_0_16_253
*879 FILLER_0_16_265
*880 FILLER_0_16_27
*881 FILLER_0_16_277
*882 FILLER_0_16_289
*883 FILLER_0_16_29
*884 FILLER_0_16_3
*885 FILLER_0_16_301
*886 FILLER_0_16_307
*887 FILLER_0_16_309
*888 FILLER_0_16_321
*889 FILLER_0_16_333
*890 FILLER_0_16_345
*891 FILLER_0_16_357
*892 FILLER_0_16_363
*893 FILLER_0_16_365
*894 FILLER_0_16_377
*895 FILLER_0_16_389
*896 FILLER_0_16_401
*897 FILLER_0_16_41
*898 FILLER_0_16_413
*899 FILLER_0_16_419
*900 FILLER_0_16_421
*901 FILLER_0_16_433
*902 FILLER_0_16_445
*903 FILLER_0_16_457
*904 FILLER_0_16_469
*905 FILLER_0_16_475
*906 FILLER_0_16_477
*907 FILLER_0_16_489
*908 FILLER_0_16_501
*909 FILLER_0_16_513
*910 FILLER_0_16_525
*911 FILLER_0_16_53
*912 FILLER_0_16_531
*913 FILLER_0_16_533
*914 FILLER_0_16_545
*915 FILLER_0_16_557
*916 FILLER_0_16_569
*917 FILLER_0_16_581
*918 FILLER_0_16_587
*919 FILLER_0_16_589
*920 FILLER_0_16_601
*921 FILLER_0_16_613
*922 FILLER_0_16_625
*923 FILLER_0_16_637
*924 FILLER_0_16_643
*925 FILLER_0_16_645
*926 FILLER_0_16_65
*927 FILLER_0_16_657
*928 FILLER_0_16_669
*929 FILLER_0_16_681
*930 FILLER_0_16_693
*931 FILLER_0_16_699
*932 FILLER_0_16_701
*933 FILLER_0_16_713
*934 FILLER_0_16_725
*935 FILLER_0_16_737
*936 FILLER_0_16_749
*937 FILLER_0_16_755
*938 FILLER_0_16_757
*939 FILLER_0_16_769
*940 FILLER_0_16_77
*941 FILLER_0_16_781
*942 FILLER_0_16_793
*943 FILLER_0_16_805
*944 FILLER_0_16_811
*945 FILLER_0_16_813
*946 FILLER_0_16_825
*947 FILLER_0_16_83
*948 FILLER_0_16_837
*949 FILLER_0_16_849
*950 FILLER_0_16_85
*951 FILLER_0_16_861
*952 FILLER_0_16_867
*953 FILLER_0_16_869
*954 FILLER_0_16_881
*955 FILLER_0_16_893
*956 FILLER_0_16_905
*957 FILLER_0_16_917
*958 FILLER_0_16_923
*959 FILLER_0_16_925
*960 FILLER_0_16_937
*961 FILLER_0_16_949
*962 FILLER_0_16_961
*963 FILLER_0_16_97
*964 FILLER_0_16_973
*965 FILLER_0_16_979
*966 FILLER_0_16_981
*967 FILLER_0_16_993
*968 FILLER_0_17_1001
*969 FILLER_0_17_1007
*970 FILLER_0_17_1009
*971 FILLER_0_17_1021
*972 FILLER_0_17_1033
*973 FILLER_0_17_1045
*974 FILLER_0_17_105
*975 FILLER_0_17_1057
*976 FILLER_0_17_1063
*977 FILLER_0_17_1065
*978 FILLER_0_17_1077
*979 FILLER_0_17_1089
*980 FILLER_0_17_111
*981 FILLER_0_17_113
*982 FILLER_0_17_125
*983 FILLER_0_17_137
*984 FILLER_0_17_149
*985 FILLER_0_17_15
*986 FILLER_0_17_161
*987 FILLER_0_17_167
*988 FILLER_0_17_169
*989 FILLER_0_17_181
*990 FILLER_0_17_193
*991 FILLER_0_17_205
*992 FILLER_0_17_217
*993 FILLER_0_17_223
*994 FILLER_0_17_225
*995 FILLER_0_17_237
*996 FILLER_0_17_249
*997 FILLER_0_17_261
*998 FILLER_0_17_27
*999 FILLER_0_17_273
*1000 FILLER_0_17_279
*1001 FILLER_0_17_281
*1002 FILLER_0_17_293
*1003 FILLER_0_17_3
*1004 FILLER_0_17_305
*1005 FILLER_0_17_317
*1006 FILLER_0_17_329
*1007 FILLER_0_17_335
*1008 FILLER_0_17_337
*1009 FILLER_0_17_349
*1010 FILLER_0_17_361
*1011 FILLER_0_17_373
*1012 FILLER_0_17_385
*1013 FILLER_0_17_39
*1014 FILLER_0_17_391
*1015 FILLER_0_17_393
*1016 FILLER_0_17_405
*1017 FILLER_0_17_417
*1018 FILLER_0_17_429
*1019 FILLER_0_17_441
*1020 FILLER_0_17_447
*1021 FILLER_0_17_449
*1022 FILLER_0_17_461
*1023 FILLER_0_17_473
*1024 FILLER_0_17_485
*1025 FILLER_0_17_497
*1026 FILLER_0_17_503
*1027 FILLER_0_17_505
*1028 FILLER_0_17_51
*1029 FILLER_0_17_517
*1030 FILLER_0_17_529
*1031 FILLER_0_17_541
*1032 FILLER_0_17_55
*1033 FILLER_0_17_553
*1034 FILLER_0_17_559
*1035 FILLER_0_17_561
*1036 FILLER_0_17_57
*1037 FILLER_0_17_573
*1038 FILLER_0_17_585
*1039 FILLER_0_17_597
*1040 FILLER_0_17_609
*1041 FILLER_0_17_615
*1042 FILLER_0_17_617
*1043 FILLER_0_17_629
*1044 FILLER_0_17_641
*1045 FILLER_0_17_653
*1046 FILLER_0_17_665
*1047 FILLER_0_17_671
*1048 FILLER_0_17_673
*1049 FILLER_0_17_685
*1050 FILLER_0_17_69
*1051 FILLER_0_17_697
*1052 FILLER_0_17_709
*1053 FILLER_0_17_721
*1054 FILLER_0_17_727
*1055 FILLER_0_17_729
*1056 FILLER_0_17_741
*1057 FILLER_0_17_753
*1058 FILLER_0_17_765
*1059 FILLER_0_17_777
*1060 FILLER_0_17_783
*1061 FILLER_0_17_785
*1062 FILLER_0_17_797
*1063 FILLER_0_17_809
*1064 FILLER_0_17_81
*1065 FILLER_0_17_821
*1066 FILLER_0_17_833
*1067 FILLER_0_17_839
*1068 FILLER_0_17_841
*1069 FILLER_0_17_853
*1070 FILLER_0_17_865
*1071 FILLER_0_17_877
*1072 FILLER_0_17_889
*1073 FILLER_0_17_895
*1074 FILLER_0_17_897
*1075 FILLER_0_17_909
*1076 FILLER_0_17_921
*1077 FILLER_0_17_93
*1078 FILLER_0_17_933
*1079 FILLER_0_17_945
*1080 FILLER_0_17_951
*1081 FILLER_0_17_953
*1082 FILLER_0_17_965
*1083 FILLER_0_17_977
*1084 FILLER_0_17_989
*1085 FILLER_0_18_1005
*1086 FILLER_0_18_1017
*1087 FILLER_0_18_1029
*1088 FILLER_0_18_1035
*1089 FILLER_0_18_1037
*1090 FILLER_0_18_1049
*1091 FILLER_0_18_1061
*1092 FILLER_0_18_1073
*1093 FILLER_0_18_1085
*1094 FILLER_0_18_109
*1095 FILLER_0_18_1091
*1096 FILLER_0_18_1093
*1097 FILLER_0_18_121
*1098 FILLER_0_18_133
*1099 FILLER_0_18_139
*1100 FILLER_0_18_141
*1101 FILLER_0_18_15
*1102 FILLER_0_18_153
*1103 FILLER_0_18_165
*1104 FILLER_0_18_177
*1105 FILLER_0_18_189
*1106 FILLER_0_18_195
*1107 FILLER_0_18_197
*1108 FILLER_0_18_209
*1109 FILLER_0_18_221
*1110 FILLER_0_18_233
*1111 FILLER_0_18_245
*1112 FILLER_0_18_251
*1113 FILLER_0_18_253
*1114 FILLER_0_18_265
*1115 FILLER_0_18_27
*1116 FILLER_0_18_277
*1117 FILLER_0_18_289
*1118 FILLER_0_18_29
*1119 FILLER_0_18_3
*1120 FILLER_0_18_301
*1121 FILLER_0_18_307
*1122 FILLER_0_18_309
*1123 FILLER_0_18_321
*1124 FILLER_0_18_333
*1125 FILLER_0_18_345
*1126 FILLER_0_18_357
*1127 FILLER_0_18_363
*1128 FILLER_0_18_365
*1129 FILLER_0_18_377
*1130 FILLER_0_18_389
*1131 FILLER_0_18_401
*1132 FILLER_0_18_41
*1133 FILLER_0_18_413
*1134 FILLER_0_18_419
*1135 FILLER_0_18_421
*1136 FILLER_0_18_433
*1137 FILLER_0_18_445
*1138 FILLER_0_18_457
*1139 FILLER_0_18_469
*1140 FILLER_0_18_475
*1141 FILLER_0_18_477
*1142 FILLER_0_18_489
*1143 FILLER_0_18_501
*1144 FILLER_0_18_513
*1145 FILLER_0_18_525
*1146 FILLER_0_18_53
*1147 FILLER_0_18_531
*1148 FILLER_0_18_533
*1149 FILLER_0_18_545
*1150 FILLER_0_18_557
*1151 FILLER_0_18_569
*1152 FILLER_0_18_581
*1153 FILLER_0_18_587
*1154 FILLER_0_18_589
*1155 FILLER_0_18_601
*1156 FILLER_0_18_613
*1157 FILLER_0_18_625
*1158 FILLER_0_18_637
*1159 FILLER_0_18_643
*1160 FILLER_0_18_645
*1161 FILLER_0_18_65
*1162 FILLER_0_18_657
*1163 FILLER_0_18_669
*1164 FILLER_0_18_681
*1165 FILLER_0_18_693
*1166 FILLER_0_18_699
*1167 FILLER_0_18_701
*1168 FILLER_0_18_713
*1169 FILLER_0_18_725
*1170 FILLER_0_18_737
*1171 FILLER_0_18_749
*1172 FILLER_0_18_755
*1173 FILLER_0_18_757
*1174 FILLER_0_18_769
*1175 FILLER_0_18_77
*1176 FILLER_0_18_781
*1177 FILLER_0_18_793
*1178 FILLER_0_18_805
*1179 FILLER_0_18_811
*1180 FILLER_0_18_813
*1181 FILLER_0_18_825
*1182 FILLER_0_18_83
*1183 FILLER_0_18_837
*1184 FILLER_0_18_849
*1185 FILLER_0_18_85
*1186 FILLER_0_18_861
*1187 FILLER_0_18_867
*1188 FILLER_0_18_869
*1189 FILLER_0_18_881
*1190 FILLER_0_18_893
*1191 FILLER_0_18_905
*1192 FILLER_0_18_917
*1193 FILLER_0_18_923
*1194 FILLER_0_18_925
*1195 FILLER_0_18_937
*1196 FILLER_0_18_949
*1197 FILLER_0_18_961
*1198 FILLER_0_18_97
*1199 FILLER_0_18_973
*1200 FILLER_0_18_979
*1201 FILLER_0_18_981
*1202 FILLER_0_18_993
*1203 FILLER_0_19_1001
*1204 FILLER_0_19_1007
*1205 FILLER_0_19_1009
*1206 FILLER_0_19_1021
*1207 FILLER_0_19_1033
*1208 FILLER_0_19_1045
*1209 FILLER_0_19_105
*1210 FILLER_0_19_1057
*1211 FILLER_0_19_1063
*1212 FILLER_0_19_1065
*1213 FILLER_0_19_1077
*1214 FILLER_0_19_1089
*1215 FILLER_0_19_111
*1216 FILLER_0_19_113
*1217 FILLER_0_19_125
*1218 FILLER_0_19_137
*1219 FILLER_0_19_149
*1220 FILLER_0_19_15
*1221 FILLER_0_19_161
*1222 FILLER_0_19_167
*1223 FILLER_0_19_169
*1224 FILLER_0_19_181
*1225 FILLER_0_19_193
*1226 FILLER_0_19_205
*1227 FILLER_0_19_217
*1228 FILLER_0_19_223
*1229 FILLER_0_19_225
*1230 FILLER_0_19_237
*1231 FILLER_0_19_249
*1232 FILLER_0_19_261
*1233 FILLER_0_19_27
*1234 FILLER_0_19_273
*1235 FILLER_0_19_279
*1236 FILLER_0_19_281
*1237 FILLER_0_19_293
*1238 FILLER_0_19_3
*1239 FILLER_0_19_305
*1240 FILLER_0_19_317
*1241 FILLER_0_19_329
*1242 FILLER_0_19_335
*1243 FILLER_0_19_337
*1244 FILLER_0_19_349
*1245 FILLER_0_19_361
*1246 FILLER_0_19_373
*1247 FILLER_0_19_385
*1248 FILLER_0_19_39
*1249 FILLER_0_19_391
*1250 FILLER_0_19_393
*1251 FILLER_0_19_405
*1252 FILLER_0_19_417
*1253 FILLER_0_19_429
*1254 FILLER_0_19_441
*1255 FILLER_0_19_447
*1256 FILLER_0_19_449
*1257 FILLER_0_19_461
*1258 FILLER_0_19_473
*1259 FILLER_0_19_485
*1260 FILLER_0_19_497
*1261 FILLER_0_19_503
*1262 FILLER_0_19_505
*1263 FILLER_0_19_51
*1264 FILLER_0_19_517
*1265 FILLER_0_19_529
*1266 FILLER_0_19_541
*1267 FILLER_0_19_55
*1268 FILLER_0_19_553
*1269 FILLER_0_19_559
*1270 FILLER_0_19_561
*1271 FILLER_0_19_57
*1272 FILLER_0_19_573
*1273 FILLER_0_19_585
*1274 FILLER_0_19_597
*1275 FILLER_0_19_609
*1276 FILLER_0_19_615
*1277 FILLER_0_19_617
*1278 FILLER_0_19_629
*1279 FILLER_0_19_641
*1280 FILLER_0_19_653
*1281 FILLER_0_19_665
*1282 FILLER_0_19_671
*1283 FILLER_0_19_673
*1284 FILLER_0_19_685
*1285 FILLER_0_19_69
*1286 FILLER_0_19_697
*1287 FILLER_0_19_709
*1288 FILLER_0_19_721
*1289 FILLER_0_19_727
*1290 FILLER_0_19_729
*1291 FILLER_0_19_741
*1292 FILLER_0_19_753
*1293 FILLER_0_19_765
*1294 FILLER_0_19_777
*1295 FILLER_0_19_783
*1296 FILLER_0_19_785
*1297 FILLER_0_19_797
*1298 FILLER_0_19_809
*1299 FILLER_0_19_81
*1300 FILLER_0_19_821
*1301 FILLER_0_19_833
*1302 FILLER_0_19_839
*1303 FILLER_0_19_841
*1304 FILLER_0_19_853
*1305 FILLER_0_19_865
*1306 FILLER_0_19_877
*1307 FILLER_0_19_889
*1308 FILLER_0_19_895
*1309 FILLER_0_19_897
*1310 FILLER_0_19_909
*1311 FILLER_0_19_921
*1312 FILLER_0_19_93
*1313 FILLER_0_19_933
*1314 FILLER_0_19_945
*1315 FILLER_0_19_951
*1316 FILLER_0_19_953
*1317 FILLER_0_19_965
*1318 FILLER_0_19_977
*1319 FILLER_0_19_989
*1320 FILLER_0_1_1001
*1321 FILLER_0_1_1007
*1322 FILLER_0_1_1009
*1323 FILLER_0_1_1021
*1324 FILLER_0_1_1033
*1325 FILLER_0_1_1045
*1326 FILLER_0_1_105
*1327 FILLER_0_1_1057
*1328 FILLER_0_1_1063
*1329 FILLER_0_1_1065
*1330 FILLER_0_1_1077
*1331 FILLER_0_1_1089
*1332 FILLER_0_1_111
*1333 FILLER_0_1_113
*1334 FILLER_0_1_125
*1335 FILLER_0_1_137
*1336 FILLER_0_1_149
*1337 FILLER_0_1_15
*1338 FILLER_0_1_161
*1339 FILLER_0_1_167
*1340 FILLER_0_1_169
*1341 FILLER_0_1_181
*1342 FILLER_0_1_193
*1343 FILLER_0_1_205
*1344 FILLER_0_1_217
*1345 FILLER_0_1_223
*1346 FILLER_0_1_225
*1347 FILLER_0_1_237
*1348 FILLER_0_1_249
*1349 FILLER_0_1_261
*1350 FILLER_0_1_27
*1351 FILLER_0_1_273
*1352 FILLER_0_1_279
*1353 FILLER_0_1_281
*1354 FILLER_0_1_293
*1355 FILLER_0_1_3
*1356 FILLER_0_1_305
*1357 FILLER_0_1_317
*1358 FILLER_0_1_329
*1359 FILLER_0_1_335
*1360 FILLER_0_1_337
*1361 FILLER_0_1_349
*1362 FILLER_0_1_361
*1363 FILLER_0_1_373
*1364 FILLER_0_1_385
*1365 FILLER_0_1_39
*1366 FILLER_0_1_391
*1367 FILLER_0_1_393
*1368 FILLER_0_1_405
*1369 FILLER_0_1_417
*1370 FILLER_0_1_429
*1371 FILLER_0_1_441
*1372 FILLER_0_1_447
*1373 FILLER_0_1_449
*1374 FILLER_0_1_461
*1375 FILLER_0_1_473
*1376 FILLER_0_1_485
*1377 FILLER_0_1_497
*1378 FILLER_0_1_503
*1379 FILLER_0_1_505
*1380 FILLER_0_1_51
*1381 FILLER_0_1_517
*1382 FILLER_0_1_529
*1383 FILLER_0_1_539
*1384 FILLER_0_1_55
*1385 FILLER_0_1_551
*1386 FILLER_0_1_559
*1387 FILLER_0_1_561
*1388 FILLER_0_1_569
*1389 FILLER_0_1_57
*1390 FILLER_0_1_581
*1391 FILLER_0_1_593
*1392 FILLER_0_1_605
*1393 FILLER_0_1_613
*1394 FILLER_0_1_617
*1395 FILLER_0_1_629
*1396 FILLER_0_1_641
*1397 FILLER_0_1_653
*1398 FILLER_0_1_665
*1399 FILLER_0_1_671
*1400 FILLER_0_1_673
*1401 FILLER_0_1_685
*1402 FILLER_0_1_69
*1403 FILLER_0_1_697
*1404 FILLER_0_1_709
*1405 FILLER_0_1_721
*1406 FILLER_0_1_727
*1407 FILLER_0_1_729
*1408 FILLER_0_1_741
*1409 FILLER_0_1_753
*1410 FILLER_0_1_765
*1411 FILLER_0_1_777
*1412 FILLER_0_1_783
*1413 FILLER_0_1_785
*1414 FILLER_0_1_797
*1415 FILLER_0_1_809
*1416 FILLER_0_1_81
*1417 FILLER_0_1_821
*1418 FILLER_0_1_833
*1419 FILLER_0_1_839
*1420 FILLER_0_1_841
*1421 FILLER_0_1_853
*1422 FILLER_0_1_865