*SPEF "ieee 1481-1999"
*DESIGN "dff_ram_4x72"
*DATE "11:11:11 Fri 11 11, 1111"
*VENDOR "OpenRCX"
*PROGRAM "Parallel Extraction"
*VERSION "1.0"
*DESIGN_FLOW "NAME_SCOPE LOCAL" "PIN_CAP NONE"
*DIVIDER /
*DELIMITER :
*BUS_DELIMITER []
*T_UNIT 1 NS
*C_UNIT 1 PF
*R_UNIT 1 OHM
*L_UNIT 1 HENRY

*NAME_MAP
*3 address[0]
*4 address[1]
*5 clk
*6 en_n
*7 rdata[0]
*8 rdata[10]
*9 rdata[11]
*10 rdata[12]
*11 rdata[13]
*12 rdata[14]
*13 rdata[15]
*14 rdata[16]
*15 rdata[17]
*16 rdata[18]
*17 rdata[19]
*18 rdata[1]
*19 rdata[20]
*20 rdata[21]
*21 rdata[22]
*22 rdata[23]
*23 rdata[24]
*24 rdata[25]
*25 rdata[26]
*26 rdata[27]
*27 rdata[28]
*28 rdata[29]
*29 rdata[2]
*30 rdata[30]
*31 rdata[31]
*32 rdata[32]
*33 rdata[33]
*34 rdata[34]
*35 rdata[35]
*36 rdata[36]
*37 rdata[37]
*38 rdata[38]
*39 rdata[39]
*40 rdata[3]
*41 rdata[40]
*42 rdata[41]
*43 rdata[42]
*44 rdata[43]
*45 rdata[44]
*46 rdata[45]
*47 rdata[46]
*48 rdata[47]
*49 rdata[48]
*50 rdata[49]
*51 rdata[4]
*52 rdata[50]
*53 rdata[51]
*54 rdata[52]
*55 rdata[53]
*56 rdata[54]
*57 rdata[55]
*58 rdata[56]
*59 rdata[57]
*60 rdata[58]
*61 rdata[59]
*62 rdata[5]
*63 rdata[60]
*64 rdata[61]
*65 rdata[62]
*66 rdata[63]
*67 rdata[64]
*68 rdata[65]
*69 rdata[66]
*70 rdata[67]
*71 rdata[68]
*72 rdata[69]
*73 rdata[6]
*74 rdata[70]
*75 rdata[71]
*76 rdata[7]
*77 rdata[8]
*78 rdata[9]
*79 wdata[0]
*80 wdata[10]
*81 wdata[11]
*82 wdata[12]
*83 wdata[13]
*84 wdata[14]
*85 wdata[15]
*86 wdata[16]
*87 wdata[17]
*88 wdata[18]
*89 wdata[19]
*90 wdata[1]
*91 wdata[20]
*92 wdata[21]
*93 wdata[22]
*94 wdata[23]
*95 wdata[24]
*96 wdata[25]
*97 wdata[26]
*98 wdata[27]
*99 wdata[28]
*100 wdata[29]
*101 wdata[2]
*102 wdata[30]
*103 wdata[31]
*104 wdata[32]
*105 wdata[33]
*106 wdata[34]
*107 wdata[35]
*108 wdata[36]
*109 wdata[37]
*110 wdata[38]
*111 wdata[39]
*112 wdata[3]
*113 wdata[40]
*114 wdata[41]
*115 wdata[42]
*116 wdata[43]
*117 wdata[44]
*118 wdata[45]
*119 wdata[46]
*120 wdata[47]
*121 wdata[48]
*122 wdata[49]
*123 wdata[4]
*124 wdata[50]
*125 wdata[51]
*126 wdata[52]
*127 wdata[53]
*128 wdata[54]
*129 wdata[55]
*130 wdata[56]
*131 wdata[57]
*132 wdata[58]
*133 wdata[59]
*134 wdata[5]
*135 wdata[60]
*136 wdata[61]
*137 wdata[62]
*138 wdata[63]
*139 wdata[64]
*140 wdata[65]
*141 wdata[66]
*142 wdata[67]
*143 wdata[68]
*144 wdata[69]
*145 wdata[6]
*146 wdata[70]
*147 wdata[71]
*148 wdata[7]
*149 wdata[8]
*150 wdata[9]
*151 wr
*152 _0000_
*153 _0001_
*154 _0002_
*155 _0003_
*156 _0004_
*157 _0005_
*158 _0006_
*159 _0007_
*160 _0008_
*161 _0009_
*162 _0010_
*163 _0011_
*164 _0012_
*165 _0013_
*166 _0014_
*167 _0015_
*168 _0016_
*169 _0017_
*170 _0018_
*171 _0019_
*172 _0020_
*173 _0021_
*174 _0022_
*175 _0023_
*176 _0024_
*177 _0025_
*178 _0026_
*179 _0027_
*180 _0028_
*181 _0029_
*182 _0030_
*183 _0031_
*184 _0032_
*185 _0033_
*186 _0034_
*187 _0035_
*188 _0036_
*189 _0037_
*190 _0038_
*191 _0039_
*192 _0040_
*193 _0041_
*194 _0042_
*195 _0043_
*196 _0044_
*197 _0045_
*198 _0046_
*199 _0047_
*200 _0048_
*201 _0049_
*202 _0050_
*203 _0051_
*204 _0052_
*205 _0053_
*206 _0054_
*207 _0055_
*208 _0056_
*209 _0057_
*210 _0058_
*211 _0059_
*212 _0060_
*213 _0061_
*214 _0062_
*215 _0063_
*216 _0064_
*217 _0065_
*218 _0066_
*219 _0067_
*220 _0068_
*221 _0069_
*222 _0070_
*223 _0071_
*224 _0072_
*225 _0073_
*226 _0074_
*227 _0075_
*228 _0076_
*229 _0077_
*230 _0078_
*231 _0079_
*232 _0080_
*233 _0081_
*234 _0082_
*235 _0083_
*236 _0084_
*237 _0085_
*238 _0086_
*239 _0087_
*240 _0088_
*241 _0089_
*242 _0090_
*243 _0091_
*244 _0092_
*245 _0093_
*246 _0094_
*247 _0095_
*248 _0096_
*249 _0097_
*250 _0098_
*251 _0099_
*252 _0100_
*253 _0101_
*254 _0102_
*255 _0103_
*256 _0104_
*257 _0105_
*258 _0106_
*259 _0107_
*260 _0108_
*261 _0109_
*262 _0110_
*263 _0111_
*264 _0112_
*265 _0113_
*266 _0114_
*267 _0115_
*268 _0116_
*269 _0117_
*270 _0118_
*271 _0119_
*272 _0120_
*273 _0121_
*274 _0122_
*275 _0123_
*276 _0124_
*277 _0125_
*278 _0126_
*279 _0127_
*280 _0128_
*281 _0129_
*282 _0130_
*283 _0131_
*284 _0132_
*285 _0133_
*286 _0134_
*287 _0135_
*288 _0136_
*289 _0137_
*290 _0138_
*291 _0139_
*292 _0140_
*293 _0141_
*294 _0142_
*295 _0143_
*296 _0144_
*297 _0145_
*298 _0146_
*299 _0147_
*300 _0148_
*301 _0149_
*302 _0150_
*303 _0151_
*304 _0152_
*305 _0153_
*306 _0154_
*307 _0155_
*308 _0156_
*309 _0157_
*310 _0158_
*311 _0159_
*312 _0160_
*313 _0161_
*314 _0162_
*315 _0163_
*316 _0164_
*317 _0165_
*318 _0166_
*319 _0167_
*320 _0168_
*321 _0169_
*322 _0170_
*323 _0171_
*324 _0172_
*325 _0173_
*326 _0174_
*327 _0175_
*328 _0176_
*329 _0177_
*330 _0178_
*331 _0179_
*332 _0180_
*333 _0181_
*334 _0182_
*335 _0183_
*336 _0184_
*337 _0185_
*338 _0186_
*339 _0187_
*340 _0188_
*341 _0189_
*342 _0190_
*343 _0191_
*344 _0192_
*345 _0193_
*346 _0194_
*347 _0195_
*348 _0196_
*349 _0197_
*350 _0198_
*351 _0199_
*352 _0200_
*353 _0201_
*354 _0202_
*355 _0203_
*356 _0204_
*357 _0205_
*358 _0206_
*359 _0207_
*360 _0208_
*361 _0209_
*362 _0210_
*363 _0211_
*364 _0212_
*365 _0213_
*366 _0214_
*367 _0215_
*368 _0216_
*369 _0217_
*370 _0218_
*371 _0219_
*372 _0220_
*373 _0221_
*374 _0222_
*375 _0223_
*376 _0224_
*377 _0225_
*378 _0226_
*379 _0227_
*380 _0228_
*381 _0229_
*382 _0230_
*383 _0231_
*384 _0232_
*385 _0233_
*386 _0234_
*387 _0235_
*388 _0236_
*389 _0237_
*390 _0238_
*391 _0239_
*392 _0240_
*393 _0241_
*394 _0242_
*395 _0243_
*396 _0244_
*397 _0245_
*398 _0246_
*399 _0247_
*400 _0248_
*401 _0249_
*402 _0250_
*403 _0251_
*404 _0252_
*405 _0253_
*406 _0254_
*407 _0255_
*408 _0256_
*409 _0257_
*410 _0258_
*411 _0259_
*412 _0260_
*413 _0261_
*414 _0262_
*415 _0263_
*416 _0264_
*417 _0265_
*418 _0266_
*419 _0267_
*420 _0268_
*421 _0269_
*422 _0270_
*423 _0271_
*424 _0272_
*425 _0273_
*426 _0274_
*427 _0275_
*428 _0276_
*429 _0277_
*430 _0278_
*431 _0279_
*432 _0280_
*433 _0281_
*434 _0282_
*435 _0283_
*436 _0284_
*437 _0285_
*438 _0286_
*439 _0287_
*440 _0288_
*441 _0289_
*442 _0290_
*443 _0291_
*444 _0292_
*445 _0293_
*446 _0294_
*447 _0295_
*448 _0296_
*449 _0297_
*450 _0298_
*451 _0299_
*452 _0300_
*453 _0301_
*454 _0302_
*455 _0303_
*456 _0304_
*457 _0305_
*458 _0306_
*459 _0307_
*460 _0308_
*461 _0309_
*462 _0310_
*463 _0311_
*464 _0312_
*465 _0313_
*466 _0314_
*467 _0315_
*468 _0316_
*469 _0317_
*470 _0318_
*471 _0319_
*472 _0320_
*473 _0321_
*474 _0322_
*475 _0323_
*476 _0324_
*477 _0325_
*478 _0326_
*479 _0327_
*480 _0328_
*481 _0329_
*482 _0330_
*483 _0331_
*484 _0332_
*485 _0333_
*486 _0334_
*487 _0335_
*488 _0336_
*489 _0337_
*490 _0338_
*491 _0339_
*492 _0340_
*493 _0341_
*494 _0342_
*495 _0343_
*496 _0344_
*497 _0345_
*498 _0346_
*499 _0347_
*500 _0348_
*501 _0349_
*502 _0350_
*503 _0351_
*504 _0352_
*505 _0353_
*506 _0354_
*507 _0355_
*508 _0356_
*509 _0357_
*510 _0358_
*511 _0359_
*512 _0360_
*513 _0361_
*514 _0362_
*515 _0363_
*516 _0364_
*517 _0365_
*518 _0366_
*519 _0367_
*520 _0368_
*521 _0369_
*522 _0370_
*523 _0371_
*524 _0372_
*525 _0373_
*526 _0374_
*527 _0375_
*528 _0376_
*529 _0377_
*530 _0378_
*531 _0379_
*532 _0380_
*533 _0381_
*534 _0382_
*535 _0383_
*536 _0384_
*537 _0385_
*538 _0386_
*539 _0387_
*540 _0388_
*541 _0389_
*542 _0390_
*543 _0391_
*544 _0392_
*545 _0393_
*546 _0394_
*547 _0395_
*548 _0396_
*549 _0397_
*550 _0398_
*551 _0399_
*552 _0400_
*553 _0401_
*554 _0402_
*555 _0403_
*556 _0404_
*557 _0405_
*558 _0406_
*559 _0407_
*560 _0408_
*561 _0409_
*562 _0410_
*563 _0411_
*564 _0412_
*565 _0413_
*566 _0414_
*567 _0415_
*568 _0416_
*569 _0417_
*570 _0418_
*571 _0419_
*572 _0420_
*573 _0421_
*574 _0422_
*575 _0423_
*576 _0424_
*577 _0425_
*578 _0426_
*579 _0427_
*580 _0428_
*581 _0429_
*582 _0430_
*583 _0431_
*584 _0432_
*585 _0433_
*586 _0434_
*587 _0435_
*588 _0436_
*589 _0437_
*590 _0438_
*591 _0439_
*592 _0440_
*593 _0441_
*594 _0442_
*595 _0443_
*596 _0444_
*597 _0445_
*598 _0446_
*599 _0447_
*600 _0448_
*601 _0449_
*602 _0450_
*603 _0451_
*604 _0452_
*605 _0453_
*606 _0454_
*607 _0455_
*608 _0456_
*609 _0457_
*610 _0458_
*611 _0459_
*612 _0460_
*613 _0461_
*614 _0462_
*615 _0463_
*616 _0464_
*617 _0465_
*618 _0466_
*619 _0467_
*620 _0468_
*621 _0469_
*622 _0470_
*623 _0471_
*624 _0472_
*625 _0473_
*626 _0474_
*627 _0475_
*628 _0476_
*629 _0477_
*630 _0478_
*631 _0479_
*632 _0480_
*633 _0481_
*634 _0482_
*635 _0483_
*636 _0484_
*637 _0485_
*638 _0486_
*639 _0487_
*640 _0488_
*641 _0489_
*642 _0490_
*643 _0491_
*644 _0492_
*645 _0493_
*646 _0494_
*647 _0495_
*648 _0496_
*649 _0497_
*650 _0498_
*651 _0499_
*652 _0500_
*653 _0501_
*654 _0502_
*655 _0503_
*656 _0504_
*657 _0505_
*658 _0506_
*659 _0507_
*660 _0508_
*661 _0509_
*662 _0510_
*663 _0511_
*664 _0512_
*665 _0513_
*666 _0514_
*667 _0515_
*668 _0516_
*669 _0517_
*670 _0518_
*671 _0519_
*672 _0520_
*673 _0521_
*674 _0522_
*675 _0523_
*676 _0524_
*677 _0525_
*678 _0526_
*679 _0527_
*680 _0528_
*681 _0529_
*682 _0530_
*683 _0531_
*684 _0532_
*685 _0533_
*686 _0534_
*687 _0535_
*688 _0536_
*689 _0537_
*690 _0538_
*691 _0539_
*692 _0540_
*693 _0541_
*694 _0542_
*695 _0543_
*696 _0544_
*697 _0545_
*698 _0546_
*699 _0547_
*700 _0548_
*701 _0549_
*702 _0550_
*703 _0551_
*704 _0552_
*705 _0553_
*706 _0554_
*707 _0555_
*708 _0556_
*709 _0557_
*710 _0558_
*711 _0559_
*712 _0560_
*713 _0561_
*714 _0562_
*715 _0563_
*716 _0564_
*717 _0565_
*718 _0566_
*719 _0567_
*720 _0568_
*721 _0569_
*722 _0570_
*723 _0571_
*724 _0572_
*725 _0573_
*726 _0574_
*727 _0575_
*728 _0576_
*729 _0577_
*730 _0578_
*731 _0579_
*732 _0580_
*733 _0581_
*734 _0582_
*735 _0583_
*736 _0584_
*737 _0585_
*738 _0586_
*739 _0587_
*740 _0588_
*741 _0589_
*742 _0590_
*743 _0591_
*744 _0592_
*745 _0593_
*746 _0594_
*747 _0595_
*748 _0596_
*749 _0597_
*750 _0598_
*751 _0599_
*752 _0600_
*753 _0601_
*754 _0602_
*755 _0603_
*756 _0604_
*757 _0605_
*758 _0606_
*759 _0607_
*760 _0608_
*761 _0609_
*762 _0610_
*763 _0611_
*764 _0612_
*765 _0613_
*766 _0614_
*767 _0615_
*768 _0616_
*769 _0617_
*770 _0618_
*771 _0619_
*772 _0620_
*773 _0621_
*774 _0622_
*775 _0623_
*776 _0624_
*777 _0625_
*778 _0626_
*779 _0627_
*780 _0628_
*781 _0629_
*782 _0630_
*783 _0631_
*784 _0632_
*785 _0633_
*786 _0634_
*787 _0635_
*788 _0636_
*789 _0637_
*790 _0638_
*791 _0639_
*792 _0640_
*793 _0641_
*794 _0642_
*795 _0643_
*796 _0644_
*797 _0645_
*798 _0646_
*799 _0647_
*800 _0648_
*801 _0649_
*802 _0650_
*803 _0651_
*804 _0652_
*805 _0653_
*806 _0654_
*807 _0655_
*808 _0656_
*809 _0657_
*810 _0658_
*811 _0659_
*812 _0660_
*813 _0661_
*814 _0662_
*815 _0663_
*816 _0664_
*817 _0665_
*818 _0666_
*819 _0667_
*820 _0668_
*821 _0669_
*822 _0670_
*823 _0671_
*824 _0672_
*825 _0673_
*826 _0674_
*827 _0675_
*828 _0676_
*829 _0677_
*830 _0678_
*831 _0679_
*832 _0680_
*833 _0681_
*834 _0682_
*835 _0683_
*836 _0684_
*837 _0685_
*838 _0686_
*839 _0687_
*840 _0688_
*841 _0689_
*842 _0690_
*843 _0691_
*844 _0692_
*845 _0693_
*846 _0694_
*847 _0695_
*848 _0696_
*849 _0697_
*850 _0698_
*851 _0699_
*852 _0700_
*853 _0701_
*854 _0702_
*855 _0703_
*856 _0704_
*857 _0705_
*858 _0706_
*859 _0707_
*860 _0708_
*861 _0709_
*862 _0710_
*863 _0711_
*864 _0712_
*865 _0713_
*866 _0714_
*867 _0715_
*868 _0716_
*869 _0717_
*870 _0718_
*871 _0719_
*872 _0720_
*873 _0721_
*874 _0722_
*875 _0723_
*876 _0724_
*877 _0725_
*878 _0726_
*879 _0727_
*880 _0728_
*881 _0729_
*882 _0730_
*883 _0731_
*884 _0732_
*885 _0733_
*886 _0734_
*887 _0735_
*888 _0736_
*889 _0737_
*890 _0738_
*891 _0739_
*892 _0740_
*893 _0741_
*894 _0742_
*895 _0743_
*896 _0744_
*897 _0745_
*898 _0746_
*899 _0747_
*900 _0748_
*901 _0749_
*902 _0750_
*903 _0751_
*904 _0752_
*905 _0753_
*906 _0754_
*907 _0755_
*908 _0756_
*909 _0757_
*910 _0758_
*911 _0759_
*912 _0760_
*913 _0761_
*914 _0762_
*915 _0763_
*916 _0764_
*917 _0765_
*918 _0766_
*919 _0767_
*920 _0768_
*921 _0769_
*922 _0770_
*923 _0771_
*924 _0772_
*925 _0773_
*926 _0774_
*927 _0775_
*928 _0776_
*929 _0777_
*930 _0778_
*931 _0779_
*932 _0780_
*933 _0781_
*934 _0782_
*935 _0783_
*936 _0784_
*937 _0785_
*938 _0786_
*939 _0787_
*940 _0788_
*941 _0789_
*942 _0790_
*943 _0791_
*944 _0792_
*945 _0793_
*946 _0794_
*947 _0795_
*948 _0796_
*949 _0797_
*950 _0798_
*951 _0799_
*952 _0800_
*953 _0801_
*954 _0802_
*955 _0803_
*956 _0804_
*957 _0805_
*958 _0806_
*959 _0807_
*960 _0808_
*961 _0809_
*962 _0810_
*963 _0811_
*964 _0812_
*965 _0813_
*966 _0814_
*967 _0815_
*968 _0816_
*969 _0817_
*970 _0818_
*971 _0819_
*972 _0820_
*973 _0821_
*974 _0822_
*975 _0823_
*976 _0824_
*977 _0825_
*978 _0826_
*979 _0827_
*980 _0828_
*981 _0829_
*982 _0830_
*983 _0831_
*984 _0832_
*985 _0833_
*986 _0834_
*987 _0835_
*988 _0836_
*989 _0837_
*990 _0838_
*991 _0839_
*992 _0840_
*993 _0841_
*994 _0842_
*995 _0843_
*996 _0844_
*997 _0845_
*998 _0846_
*999 _0847_
*1000 _0848_
*1001 _0849_
*1002 _0850_
*1003 _0851_
*1004 _0852_
*1005 _0853_
*1006 _0854_
*1007 _0855_
*1008 _0856_
*1009 _0857_
*1010 _0858_
*1011 _0859_
*1012 _0860_
*1013 _0861_
*1014 _0862_
*1015 _0863_
*1016 _0864_
*1017 _0865_
*1018 _0866_
*1019 _0867_
*1020 _0868_
*1021 _0869_
*1022 _0870_
*1023 _0871_
*1024 _0872_
*1025 _0873_
*1026 _0874_
*1027 _0875_
*1028 _0876_
*1029 _0877_
*1030 _0878_
*1031 _0879_
*1032 _0880_
*1033 _0881_
*1034 _0882_
*1035 _0883_
*1036 _0884_
*1037 _0885_
*1038 _0886_
*1039 _0887_
*1040 _0888_
*1041 _0889_
*1042 _0890_
*1043 _0891_
*1044 _0892_
*1045 _0893_
*1046 _0894_
*1047 _0895_
*1048 _0896_
*1049 _0897_
*1050 _0898_
*1051 _0899_
*1052 _0900_
*1053 _0901_
*1054 _0902_
*1055 _0903_
*1056 _0904_
*1057 _0905_
*1058 _0906_
*1059 _0907_
*1060 _0908_
*1061 _0909_
*1062 _0910_
*1063 _0911_
*1064 _0912_
*1065 _0913_
*1066 _0914_
*1067 _0915_
*1068 _0916_
*1069 _0917_
*1070 _0918_
*1071 _0919_
*1072 _0920_
*1073 _0921_
*1074 _0922_
*1075 _0923_
*1076 _0924_
*1077 _0925_
*1078 _0926_
*1079 _0927_
*1080 _0928_
*1081 _0929_
*1082 clknet_0_clk
*1083 clknet_2_0__leaf_clk
*1084 clknet_2_1__leaf_clk
*1085 clknet_2_2__leaf_clk
*1086 clknet_2_3__leaf_clk
*1087 clknet_leaf_0_clk
*1088 clknet_leaf_10_clk
*1089 clknet_leaf_11_clk
*1090 clknet_leaf_12_clk
*1091 clknet_leaf_13_clk
*1092 clknet_leaf_14_clk
*1093 clknet_leaf_15_clk
*1094 clknet_leaf_16_clk
*1095 clknet_leaf_17_clk
*1096 clknet_leaf_18_clk
*1097 clknet_leaf_19_clk
*1098 clknet_leaf_1_clk
*1099 clknet_leaf_20_clk
*1100 clknet_leaf_21_clk
*1101 clknet_leaf_22_clk
*1102 clknet_leaf_23_clk
*1103 clknet_leaf_24_clk
*1104 clknet_leaf_25_clk
*1105 clknet_leaf_26_clk
*1106 clknet_leaf_27_clk
*1107 clknet_leaf_28_clk
*1108 clknet_leaf_29_clk
*1109 clknet_leaf_2_clk
*1110 clknet_leaf_30_clk
*1111 clknet_leaf_3_clk
*1112 clknet_leaf_4_clk
*1113 clknet_leaf_5_clk
*1114 clknet_leaf_6_clk
*1115 clknet_leaf_7_clk
*1116 clknet_leaf_8_clk
*1117 clknet_leaf_9_clk
*1118 data\[0\]\[0\]
*1119 data\[0\]\[10\]
*1120 data\[0\]\[11\]
*1121 data\[0\]\[12\]
*1122 data\[0\]\[13\]
*1123 data\[0\]\[14\]
*1124 data\[0\]\[15\]
*1125 data\[0\]\[16\]
*1126 data\[0\]\[17\]
*1127 data\[0\]\[18\]
*1128 data\[0\]\[19\]
*1129 data\[0\]\[1\]
*1130 data\[0\]\[20\]
*1131 data\[0\]\[21\]
*1132 data\[0\]\[22\]
*1133 data\[0\]\[23\]
*1134 data\[0\]\[24\]
*1135 data\[0\]\[25\]
*1136 data\[0\]\[26\]
*1137 data\[0\]\[27\]
*1138 data\[0\]\[28\]
*1139 data\[0\]\[29\]
*1140 data\[0\]\[2\]
*1141 data\[0\]\[30\]
*1142 data\[0\]\[31\]
*1143 data\[0\]\[32\]
*1144 data\[0\]\[33\]
*1145 data\[0\]\[34\]
*1146 data\[0\]\[35\]
*1147 data\[0\]\[36\]
*1148 data\[0\]\[37\]
*1149 data\[0\]\[38\]
*1150 data\[0\]\[39\]
*1151 data\[0\]\[3\]
*1152 data\[0\]\[40\]
*1153 data\[0\]\[41\]
*1154 data\[0\]\[42\]
*1155 data\[0\]\[43\]
*1156 data\[0\]\[44\]
*1157 data\[0\]\[45\]
*1158 data\[0\]\[46\]
*1159 data\[0\]\[47\]
*1160 data\[0\]\[48\]
*1161 data\[0\]\[49\]
*1162 data\[0\]\[4\]
*1163 data\[0\]\[50\]
*1164 data\[0\]\[51\]
*1165 data\[0\]\[52\]
*1166 data\[0\]\[53\]
*1167 data\[0\]\[54\]
*1168 data\[0\]\[55\]
*1169 data\[0\]\[56\]
*1170 data\[0\]\[57\]
*1171 data\[0\]\[58\]
*1172 data\[0\]\[59\]
*1173 data\[0\]\[5\]
*1174 data\[0\]\[60\]
*1175 data\[0\]\[61\]
*1176 data\[0\]\[62\]
*1177 data\[0\]\[63\]
*1178 data\[0\]\[64\]
*1179 data\[0\]\[65\]
*1180 data\[0\]\[66\]
*1181 data\[0\]\[67\]
*1182 data\[0\]\[68\]
*1183 data\[0\]\[69\]
*1184 data\[0\]\[6\]
*1185 data\[0\]\[70\]
*1186 data\[0\]\[71\]
*1187 data\[0\]\[7\]
*1188 data\[0\]\[8\]
*1189 data\[0\]\[9\]
*1190 data\[1\]\[0\]
*1191 data\[1\]\[10\]
*1192 data\[1\]\[11\]
*1193 data\[1\]\[12\]
*1194 data\[1\]\[13\]
*1195 data\[1\]\[14\]
*1196 data\[1\]\[15\]
*1197 data\[1\]\[16\]
*1198 data\[1\]\[17\]
*1199 data\[1\]\[18\]
*1200 data\[1\]\[19\]
*1201 data\[1\]\[1\]
*1202 data\[1\]\[20\]
*1203 data\[1\]\[21\]
*1204 data\[1\]\[22\]
*1205 data\[1\]\[23\]
*1206 data\[1\]\[24\]
*1207 data\[1\]\[25\]
*1208 data\[1\]\[26\]
*1209 data\[1\]\[27\]
*1210 data\[1\]\[28\]
*1211 data\[1\]\[29\]
*1212 data\[1\]\[2\]
*1213 data\[1\]\[30\]
*1214 data\[1\]\[31\]
*1215 data\[1\]\[32\]
*1216 data\[1\]\[33\]
*1217 data\[1\]\[34\]
*1218 data\[1\]\[35\]
*1219 data\[1\]\[36\]
*1220 data\[1\]\[37\]
*1221 data\[1\]\[38\]
*1222 data\[1\]\[39\]
*1223 data\[1\]\[3\]
*1224 data\[1\]\[40\]
*1225 data\[1\]\[41\]
*1226 data\[1\]\[42\]
*1227 data\[1\]\[43\]
*1228 data\[1\]\[44\]
*1229 data\[1\]\[45\]
*1230 data\[1\]\[46\]
*1231 data\[1\]\[47\]
*1232 data\[1\]\[48\]
*1233 data\[1\]\[49\]
*1234 data\[1\]\[4\]
*1235 data\[1\]\[50\]
*1236 data\[1\]\[51\]
*1237 data\[1\]\[52\]
*1238 data\[1\]\[53\]
*1239 data\[1\]\[54\]
*1240 data\[1\]\[55\]
*1241 data\[1\]\[56\]
*1242 data\[1\]\[57\]
*1243 data\[1\]\[58\]
*1244 data\[1\]\[59\]
*1245 data\[1\]\[5\]
*1246 data\[1\]\[60\]
*1247 data\[1\]\[61\]
*1248 data\[1\]\[62\]
*1249 data\[1\]\[63\]
*1250 data\[1\]\[64\]
*1251 data\[1\]\[65\]
*1252 data\[1\]\[66\]
*1253 data\[1\]\[67\]
*1254 data\[1\]\[68\]
*1255 data\[1\]\[69\]
*1256 data\[1\]\[6\]
*1257 data\[1\]\[70\]
*1258 data\[1\]\[71\]
*1259 data\[1\]\[7\]
*1260 data\[1\]\[8\]
*1261 data\[1\]\[9\]
*1262 data\[2\]\[0\]
*1263 data\[2\]\[10\]
*1264 data\[2\]\[11\]
*1265 data\[2\]\[12\]
*1266 data\[2\]\[13\]
*1267 data\[2\]\[14\]
*1268 data\[2\]\[15\]
*1269 data\[2\]\[16\]
*1270 data\[2\]\[17\]
*1271 data\[2\]\[18\]
*1272 data\[2\]\[19\]
*1273 data\[2\]\[1\]
*1274 data\[2\]\[20\]
*1275 data\[2\]\[21\]
*1276 data\[2\]\[22\]
*1277 data\[2\]\[23\]
*1278 data\[2\]\[24\]
*1279 data\[2\]\[25\]
*1280 data\[2\]\[26\]
*1281 data\[2\]\[27\]
*1282 data\[2\]\[28\]
*1283 data\[2\]\[29\]
*1284 data\[2\]\[2\]
*1285 data\[2\]\[30\]
*1286 data\[2\]\[31\]
*1287 data\[2\]\[32\]
*1288 data\[2\]\[33\]
*1289 data\[2\]\[34\]
*1290 data\[2\]\[35\]
*1291 data\[2\]\[36\]
*1292 data\[2\]\[37\]
*1293 data\[2\]\[38\]
*1294 data\[2\]\[39\]
*1295 data\[2\]\[3\]
*1296 data\[2\]\[40\]
*1297 data\[2\]\[41\]
*1298 data\[2\]\[42\]
*1299 data\[2\]\[43\]
*1300 data\[2\]\[44\]
*1301 data\[2\]\[45\]
*1302 data\[2\]\[46\]
*1303 data\[2\]\[47\]
*1304 data\[2\]\[48\]
*1305 data\[2\]\[49\]
*1306 data\[2\]\[4\]
*1307 data\[2\]\[50\]
*1308 data\[2\]\[51\]
*1309 data\[2\]\[52\]
*1310 data\[2\]\[53\]
*1311 data\[2\]\[54\]
*1312 data\[2\]\[55\]
*1313 data\[2\]\[56\]
*1314 data\[2\]\[57\]
*1315 data\[2\]\[58\]
*1316 data\[2\]\[59\]
*1317 data\[2\]\[5\]
*1318 data\[2\]\[60\]
*1319 data\[2\]\[61\]
*1320 data\[2\]\[62\]
*1321 data\[2\]\[63\]
*1322 data\[2\]\[64\]
*1323 data\[2\]\[65\]
*1324 data\[2\]\[66\]
*1325 data\[2\]\[67\]
*1326 data\[2\]\[68\]
*1327 data\[2\]\[69\]
*1328 data\[2\]\[6\]
*1329 data\[2\]\[70\]
*1330 data\[2\]\[71\]
*1331 data\[2\]\[7\]
*1332 data\[2\]\[8\]
*1333 data\[2\]\[9\]
*1334 data\[3\]\[0\]
*1335 data\[3\]\[10\]
*1336 data\[3\]\[11\]
*1337 data\[3\]\[12\]
*1338 data\[3\]\[13\]
*1339 data\[3\]\[14\]
*1340 data\[3\]\[15\]
*1341 data\[3\]\[16\]
*1342 data\[3\]\[17\]
*1343 data\[3\]\[18\]
*1344 data\[3\]\[19\]
*1345 data\[3\]\[1\]
*1346 data\[3\]\[20\]
*1347 data\[3\]\[21\]
*1348 data\[3\]\[22\]
*1349 data\[3\]\[23\]
*1350 data\[3\]\[24\]
*1351 data\[3\]\[25\]
*1352 data\[3\]\[26\]
*1353 data\[3\]\[27\]
*1354 data\[3\]\[28\]
*1355 data\[3\]\[29\]
*1356 data\[3\]\[2\]
*1357 data\[3\]\[30\]
*1358 data\[3\]\[31\]
*1359 data\[3\]\[32\]
*1360 data\[3\]\[33\]
*1361 data\[3\]\[34\]
*1362 data\[3\]\[35\]
*1363 data\[3\]\[36\]
*1364 data\[3\]\[37\]
*1365 data\[3\]\[38\]
*1366 data\[3\]\[39\]
*1367 data\[3\]\[3\]
*1368 data\[3\]\[40\]
*1369 data\[3\]\[41\]
*1370 data\[3\]\[42\]
*1371 data\[3\]\[43\]
*1372 data\[3\]\[44\]
*1373 data\[3\]\[45\]
*1374 data\[3\]\[46\]
*1375 data\[3\]\[47\]
*1376 data\[3\]\[48\]
*1377 data\[3\]\[49\]
*1378 data\[3\]\[4\]
*1379 data\[3\]\[50\]
*1380 data\[3\]\[51\]
*1381 data\[3\]\[52\]
*1382 data\[3\]\[53\]
*1383 data\[3\]\[54\]
*1384 data\[3\]\[55\]
*1385 data\[3\]\[56\]
*1386 data\[3\]\[57\]
*1387 data\[3\]\[58\]
*1388 data\[3\]\[59\]
*1389 data\[3\]\[5\]
*1390 data\[3\]\[60\]
*1391 data\[3\]\[61\]
*1392 data\[3\]\[62\]
*1393 data\[3\]\[63\]
*1394 data\[3\]\[64\]
*1395 data\[3\]\[65\]
*1396 data\[3\]\[66\]
*1397 data\[3\]\[67\]
*1398 data\[3\]\[68\]
*1399 data\[3\]\[69\]
*1400 data\[3\]\[6\]
*1401 data\[3\]\[70\]
*1402 data\[3\]\[71\]
*1403 data\[3\]\[7\]
*1404 data\[3\]\[8\]
*1405 data\[3\]\[9\]
*1406 net1
*1407 net10
*1408 net100
*1409 net101
*1410 net102
*1411 net103
*1412 net104
*1413 net105
*1414 net106
*1415 net107
*1416 net108
*1417 net109
*1418 net11
*1419 net110
*1420 net111
*1421 net112
*1422 net113
*1423 net114
*1424 net115
*1425 net116
*1426 net117
*1427 net118
*1428 net119
*1429 net12
*1430 net120
*1431 net121
*1432 net122
*1433 net123
*1434 net124
*1435 net125
*1436 net126
*1437 net127
*1438 net128
*1439 net129
*1440 net13
*1441 net130
*1442 net131
*1443 net132
*1444 net133
*1445 net134
*1446 net135
*1447 net136
*1448 net137
*1449 net138
*1450 net139
*1451 net14
*1452 net140
*1453 net141
*1454 net142
*1455 net143
*1456 net144
*1457 net145
*1458 net146
*1459 net147
*1460 net148
*1461 net149
*1462 net15
*1463 net150
*1464 net151
*1465 net152
*1466 net153
*1467 net154
*1468 net155
*1469 net156
*1470 net157
*1471 net158
*1472 net159
*1473 net16
*1474 net160
*1475 net161
*1476 net162
*1477 net163
*1478 net164
*1479 net165
*1480 net166
*1481 net167
*1482 net168
*1483 net169
*1484 net17
*1485 net170
*1486 net171
*1487 net172
*1488 net173
*1489 net174
*1490 net175
*1491 net176
*1492 net177
*1493 net178
*1494 net179
*1495 net18
*1496 net180
*1497 net181
*1498 net182
*1499 net183
*1500 net184
*1501 net185
*1502 net186
*1503 net187
*1504 net188
*1505 net189
*1506 net19
*1507 net190
*1508 net191
*1509 net192
*1510 net193
*1511 net194
*1512 net195
*1513 net196
*1514 net197
*1515 net198
*1516 net199
*1517 net2
*1518 net20
*1519 net200
*1520 net201
*1521 net202
*1522 net203
*1523 net204
*1524 net205
*1525 net206
*1526 net207
*1527 net208
*1528 net209
*1529 net21
*1530 net210
*1531 net211
*1532 net212
*1533 net213
*1534 net214
*1535 net215
*1536 net216
*1537 net217
*1538 net218
*1539 net219
*1540 net22
*1541 net220
*1542 net221
*1543 net222
*1544 net223
*1545 net224
*1546 net225
*1547 net226
*1548 net227
*1549 net228
*1550 net229
*1551 net23
*1552 net230
*1553 net231
*1554 net232
*1555 net233
*1556 net234
*1557 net235
*1558 net236
*1559 net237
*1560 net238
*1561 net239
*1562 net24
*1563 net240
*1564 net241
*1565 net242
*1566 net243
*1567 net244
*1568 net245
*1569 net246
*1570 net247
*1571 net248
*1572 net249
*1573 net25
*1574 net250
*1575 net251
*1576 net252
*1577 net253
*1578 net254
*1579 net255
*1580 net256
*1581 net257
*1582 net258
*1583 net259
*1584 net26
*1585 net260
*1586 net261
*1587 net262
*1588 net263
*1589 net264
*1590 net265
*1591 net266
*1592 net267
*1593 net268
*1594 net269
*1595 net27
*1596 net270
*1597 net271
*1598 net272
*1599 net273
*1600 net274
*1601 net275
*1602 net276
*1603 net277
*1604 net278
*1605 net279
*1606 net28
*1607 net280
*1608 net281
*1609 net282
*1610 net283
*1611 net284
*1612 net285
*1613 net286
*1614 net287
*1615 net288
*1616 net289
*1617 net29
*1618 net290
*1619 net291
*1620 net292
*1621 net293
*1622 net294
*1623 net295
*1624 net296
*1625 net297
*1626 net298
*1627 net299
*1628 net3
*1629 net30
*1630 net300
*1631 net301
*1632 net302
*1633 net303
*1634 net304
*1635 net305
*1636 net306
*1637 net307
*1638 net308
*1639 net309
*1640 net31
*1641 net310
*1642 net311
*1643 net312
*1644 net313
*1645 net314
*1646 net315
*1647 net316
*1648 net317
*1649 net318
*1650 net319
*1651 net32
*1652 net320
*1653 net321
*1654 net322
*1655 net323
*1656 net324
*1657 net325
*1658 net326
*1659 net327
*1660 net328
*1661 net329
*1662 net33
*1663 net330
*1664 net331
*1665 net332
*1666 net333
*1667 net334
*1668 net335
*1669 net336
*1670 net337
*1671 net338
*1672 net339
*1673 net34
*1674 net340
*1675 net341
*1676 net342
*1677 net343
*1678 net344
*1679 net345
*1680 net346
*1681 net347
*1682 net348
*1683 net349
*1684 net35
*1685 net350
*1686 net351
*1687 net352
*1688 net353
*1689 net354
*1690 net355
*1691 net356
*1692 net357
*1693 net358
*1694 net359
*1695 net36
*1696 net360
*1697 net361
*1698 net362
*1699 net363
*1700 net364
*1701 net365
*1702 net366
*1703 net367
*1704 net368
*1705 net369
*1706 net37
*1707 net370
*1708 net371
*1709 net372
*1710 net373
*1711 net374
*1712 net375
*1713 net376
*1714 net377
*1715 net378
*1716 net379
*1717 net38
*1718 net380
*1719 net381
*1720 net382
*1721 net383
*1722 net384
*1723 net385
*1724 net386
*1725 net387
*1726 net388
*1727 net389
*1728 net39
*1729 net390
*1730 net391
*1731 net392
*1732 net393
*1733 net394
*1734 net395
*1735 net396
*1736 net397
*1737 net398
*1738 net399
*1739 net4
*1740 net40
*1741 net400
*1742 net401
*1743 net402
*1744 net403
*1745 net404
*1746 net405
*1747 net406
*1748 net407
*1749 net408
*1750 net409
*1751 net41
*1752 net410
*1753 net411
*1754 net412
*1755 net413
*1756 net414
*1757 net415
*1758 net416
*1759 net417
*1760 net418
*1761 net419
*1762 net42
*1763 net420
*1764 net421
*1765 net422
*1766 net423
*1767 net424
*1768 net425
*1769 net426
*1770 net427
*1771 net428
*1772 net429
*1773 net43
*1774 net430
*1775 net431
*1776 net432
*1777 net433
*1778 net434
*1779 net435
*1780 net436
*1781 net437
*1782 net438
*1783 net439
*1784 net44
*1785 net440
*1786 net441
*1787 net442
*1788 net443
*1789 net444
*1790 net445
*1791 net446
*1792 net447
*1793 net448
*1794 net449
*1795 net45
*1796 net450
*1797 net451
*1798 net452
*1799 net453
*1800 net454
*1801 net455
*1802 net456
*1803 net457
*1804 net458
*1805 net459
*1806 net46
*1807 net460
*1808 net461
*1809 net462
*1810 net463
*1811 net464
*1812 net465
*1813 net466
*1814 net467
*1815 net468
*1816 net469
*1817 net47
*1818 net470
*1819 net471
*1820 net472
*1821 net473
*1822 net474
*1823 net475
*1824 net476
*1825 net477
*1826 net478
*1827 net479
*1828 net48
*1829 net480
*1830 net481
*1831 net482
*1832 net483
*1833 net484
*1834 net485
*1835 net486
*1836 net487
*1837 net488
*1838 net489
*1839 net49
*1840 net490
*1841 net491
*1842 net492
*1843 net493
*1844 net494
*1845 net495
*1846 net496
*1847 net497
*1848 net498
*1849 net499
*1850 net5
*1851 net50
*1852 net500
*1853 net501
*1854 net502
*1855 net503
*1856 net504
*1857 net505
*1858 net506
*1859 net507
*1860 net51
*1861 net52
*1862 net53
*1863 net54
*1864 net55
*1865 net56
*1866 net57
*1867 net58
*1868 net59
*1869 net6
*1870 net60
*1871 net61
*1872 net62
*1873 net63
*1874 net64
*1875 net65
*1876 net66
*1877 net67
*1878 net68
*1879 net69
*1880 net7
*1881 net70
*1882 net71
*1883 net72
*1884 net73
*1885 net74
*1886 net75
*1887 net76
*1888 net77
*1889 net78
*1890 net79
*1891 net8
*1892 net80
*1893 net81
*1894 net82
*1895 net83
*1896 net84
*1897 net85
*1898 net86
*1899 net87
*1900 net88
*1901 net89
*1902 net9
*1903 net90
*1904 net91
*1905 net92
*1906 net93
*1907 net94
*1908 net95
*1909 net96
*1910 net97
*1911 net98
*1912 net99
*1913 FILLER_0_0_104
*1914 FILLER_0_0_111
*1915 FILLER_0_0_119
*1916 FILLER_0_0_126
*1917 FILLER_0_0_133
*1918 FILLER_0_0_139
*1919 FILLER_0_0_141
*1920 FILLER_0_0_146
*1921 FILLER_0_0_15
*1922 FILLER_0_0_153
*1923 FILLER_0_0_161
*1924 FILLER_0_0_169
*1925 FILLER_0_0_194
*1926 FILLER_0_0_205
*1927 FILLER_0_0_212
*1928 FILLER_0_0_219
*1929 FILLER_0_0_267
*1930 FILLER_0_0_27
*1931 FILLER_0_0_275
*1932 FILLER_0_0_279
*1933 FILLER_0_0_29
*1934 FILLER_0_0_293
*1935 FILLER_0_0_3
*1936 FILLER_0_0_301
*1937 FILLER_0_0_307
*1938 FILLER_0_0_309
*1939 FILLER_0_0_321
*1940 FILLER_0_0_333
*1941 FILLER_0_0_337
*1942 FILLER_0_0_349
*1943 FILLER_0_0_361
*1944 FILLER_0_0_365
*1945 FILLER_0_0_377
*1946 FILLER_0_0_41
*1947 FILLER_0_0_53
*1948 FILLER_0_0_57
*1949 FILLER_0_0_62
*1950 FILLER_0_0_70
*1951 FILLER_0_0_77
*1952 FILLER_0_0_83
*1953 FILLER_0_0_91
*1954 FILLER_0_0_98
*1955 FILLER_0_10_15
*1956 FILLER_0_10_157
*1957 FILLER_0_10_178
*1958 FILLER_0_10_224
*1959 FILLER_0_10_232
*1960 FILLER_0_10_253
*1961 FILLER_0_10_281
*1962 FILLER_0_10_293
*1963 FILLER_0_10_3
*1964 FILLER_0_10_309
*1965 FILLER_0_10_342
*1966 FILLER_0_10_361
*1967 FILLER_0_10_365
*1968 FILLER_0_10_58
*1969 FILLER_0_10_80
*1970 FILLER_0_10_88
*1971 FILLER_0_11_101
*1972 FILLER_0_11_111
*1973 FILLER_0_11_113
*1974 FILLER_0_11_121
*1975 FILLER_0_11_135
*1976 FILLER_0_11_141
*1977 FILLER_0_11_159
*1978 FILLER_0_11_18
*1979 FILLER_0_11_185
*1980 FILLER_0_11_189
*1981 FILLER_0_11_207
*1982 FILLER_0_11_219
*1983 FILLER_0_11_223
*1984 FILLER_0_11_225
*1985 FILLER_0_11_235
*1986 FILLER_0_11_250
*1987 FILLER_0_11_262
*1988 FILLER_0_11_270
*1989 FILLER_0_11_302
*1990 FILLER_0_11_308
*1991 FILLER_0_11_318
*1992 FILLER_0_11_335
*1993 FILLER_0_11_337
*1994 FILLER_0_11_343
*1995 FILLER_0_11_36
*1996 FILLER_0_11_376
*1997 FILLER_0_11_6
*1998 FILLER_0_11_73
*1999 FILLER_0_12_117
*2000 FILLER_0_12_122
*2001 FILLER_0_12_134
*2002 FILLER_0_12_149
*2003 FILLER_0_12_15
*2004 FILLER_0_12_161
*2005 FILLER_0_12_165
*2006 FILLER_0_12_197
*2007 FILLER_0_12_201
*2008 FILLER_0_12_211
*2009 FILLER_0_12_215
*2010 FILLER_0_12_235
*2011 FILLER_0_12_261
*2012 FILLER_0_12_276
*2013 FILLER_0_12_296
*2014 FILLER_0_12_3
*2015 FILLER_0_12_304
*2016 FILLER_0_12_334
*2017 FILLER_0_12_340
*2018 FILLER_0_12_357
*2019 FILLER_0_12_363
*2020 FILLER_0_12_365
*2021 FILLER_0_12_38
*2022 FILLER_0_12_53
*2023 FILLER_0_12_62
*2024 FILLER_0_12_74
*2025 FILLER_0_12_82
*2026 FILLER_0_12_94
*2027 FILLER_0_13_111
*2028 FILLER_0_13_113
*2029 FILLER_0_13_131
*2030 FILLER_0_13_163
*2031 FILLER_0_13_18
*2032 FILLER_0_13_194
*2033 FILLER_0_13_223
*2034 FILLER_0_13_253
*2035 FILLER_0_13_257
*2036 FILLER_0_13_277
*2037 FILLER_0_13_3
*2038 FILLER_0_13_305